! Program Version,EnergyPlus, Version 23.1.0-87ed9199d4, YMD=2026.05.09 11:13,
! Output:Meter Objects (applicable to this run)
Output:Meter,Electricity:Facility,hourly; !- [J]
Output:Meter:Cumulative,Electricity:Facility,hourly; !- [J]
Output:Meter,Electricity:Building,hourly; !- [J]
Output:Meter:Cumulative,Electricity:Building,hourly; !- [J]
Output:Meter,Electricity:Zone:THERMAL ZONE: P1-11-OFFICE 1,hourly; !- [J]
Output:Meter:Cumulative,Electricity:Zone:THERMAL ZONE: P1-11-OFFICE 1,hourly; !- [J]
Output:Meter,Electricity:SpaceType:189.1-2009 - OFFICE - CLOSEDOFFICE - CZ4-8 1,hourly; !- [J]
Output:Meter:Cumulative,Electricity:SpaceType:189.1-2009 - OFFICE - CLOSEDOFFICE - CZ4-8 1,hourly; !- [J]
Output:Meter,InteriorLights:Electricity,hourly; !- [J]
Output:Meter:Cumulative,InteriorLights:Electricity,hourly; !- [J]
Output:Meter,InteriorLights:Electricity:Zone:THERMAL ZONE: P1-11-OFFICE 1,hourly; !- [J]
Output:Meter:Cumulative,InteriorLights:Electricity:Zone:THERMAL ZONE: P1-11-OFFICE 1,hourly; !- [J]
Output:Meter,InteriorLights:Electricity:SpaceType:189.1-2009 - OFFICE - CLOSEDOFFICE - CZ4-8 1,hourly; !- [J]
Output:Meter:Cumulative,InteriorLights:Electricity:SpaceType:189.1-2009 - OFFICE - CLOSEDOFFICE - CZ4-8 1,hourly; !- [J]
Output:Meter,General:InteriorLights:Electricity,hourly; !- [J]
Output:Meter:Cumulative,General:InteriorLights:Electricity,hourly; !- [J]
Output:Meter,General:InteriorLights:Electricity:Zone:THERMAL ZONE: P1-11-OFFICE 1,hourly; !- [J]
Output:Meter:Cumulative,General:InteriorLights:Electricity:Zone:THERMAL ZONE: P1-11-OFFICE 1,hourly; !- [J]
Output:Meter,General:InteriorLights:Electricity:SpaceType:189.1-2009 - OFFICE - CLOSEDOFFICE - CZ4-8 1,hourly; !- [J]
Output:Meter:Cumulative,General:InteriorLights:Electricity:SpaceType:189.1-2009 - OFFICE - CLOSEDOFFICE - CZ4-8 1,hourly; !- [J]
Output:Meter,Electricity:Zone:THERMAL ZONE: P1-1-OFFICE 1,hourly; !- [J]
Output:Meter:Cumulative,Electricity:Zone:THERMAL ZONE: P1-1-OFFICE 1,hourly; !- [J]
Output:Meter,InteriorLights:Electricity:Zone:THERMAL ZONE: P1-1-OFFICE 1,hourly; !- [J]
Output:Meter:Cumulative,InteriorLights:Electricity:Zone:THERMAL ZONE: P1-1-OFFICE 1,hourly; !- [J]
Output:Meter,General:InteriorLights:Electricity:Zone:THERMAL ZONE: P1-1-OFFICE 1,hourly; !- [J]
Output:Meter:Cumulative,General:InteriorLights:Electricity:Zone:THERMAL ZONE: P1-1-OFFICE 1,hourly; !- [J]
Output:Meter,Electricity:Zone:THERMAL ZONE: P1-1-OFFICE 2,hourly; !- [J]
Output:Meter:Cumulative,Electricity:Zone:THERMAL ZONE: P1-1-OFFICE 2,hourly; !- [J]
Output:Meter,InteriorLights:Electricity:Zone:THERMAL ZONE: P1-1-OFFICE 2,hourly; !- [J]
Output:Meter:Cumulative,InteriorLights:Electricity:Zone:THERMAL ZONE: P1-1-OFFICE 2,hourly; !- [J]
Output:Meter,General:InteriorLights:Electricity:Zone:THERMAL ZONE: P1-1-OFFICE 2,hourly; !- [J]
Output:Meter:Cumulative,General:InteriorLights:Electricity:Zone:THERMAL ZONE: P1-1-OFFICE 2,hourly; !- [J]
Output:Meter,Electricity:Zone:THERMAL ZONE: P1-11-OFFICE 2,hourly; !- [J]
Output:Meter:Cumulative,Electricity:Zone:THERMAL ZONE: P1-11-OFFICE 2,hourly; !- [J]
Output:Meter,InteriorLights:Electricity:Zone:THERMAL ZONE: P1-11-OFFICE 2,hourly; !- [J]
Output:Meter:Cumulative,InteriorLights:Electricity:Zone:THERMAL ZONE: P1-11-OFFICE 2,hourly; !- [J]
Output:Meter,General:InteriorLights:Electricity:Zone:THERMAL ZONE: P1-11-OFFICE 2,hourly; !- [J]
Output:Meter:Cumulative,General:InteriorLights:Electricity:Zone:THERMAL ZONE: P1-11-OFFICE 2,hourly; !- [J]
Output:Meter,Electricity:Zone:THERMAL ZONE: P1-7-OFFICE 1,hourly; !- [J]
Output:Meter:Cumulative,Electricity:Zone:THERMAL ZONE: P1-7-OFFICE 1,hourly; !- [J]
Output:Meter,InteriorLights:Electricity:Zone:THERMAL ZONE: P1-7-OFFICE 1,hourly; !- [J]
Output:Meter:Cumulative,InteriorLights:Electricity:Zone:THERMAL ZONE: P1-7-OFFICE 1,hourly; !- [J]
Output:Meter,General:InteriorLights:Electricity:Zone:THERMAL ZONE: P1-7-OFFICE 1,hourly; !- [J]
Output:Meter:Cumulative,General:InteriorLights:Electricity:Zone:THERMAL ZONE: P1-7-OFFICE 1,hourly; !- [J]
Output:Meter,Electricity:Zone:THERMAL ZONE: P1-2-RESTROOM 1,hourly; !- [J]
Output:Meter:Cumulative,Electricity:Zone:THERMAL ZONE: P1-2-RESTROOM 1,hourly; !- [J]
Output:Meter,Electricity:SpaceType:189.1-2009 - OFFICE - RESTROOM - CZ4-8,hourly; !- [J]
Output:Meter:Cumulative,Electricity:SpaceType:189.1-2009 - OFFICE - RESTROOM - CZ4-8,hourly; !- [J]
Output:Meter,InteriorLights:Electricity:Zone:THERMAL ZONE: P1-2-RESTROOM 1,hourly; !- [J]
Output:Meter:Cumulative,InteriorLights:Electricity:Zone:THERMAL ZONE: P1-2-RESTROOM 1,hourly; !- [J]
Output:Meter,InteriorLights:Electricity:SpaceType:189.1-2009 - OFFICE - RESTROOM - CZ4-8,hourly; !- [J]
Output:Meter:Cumulative,InteriorLights:Electricity:SpaceType:189.1-2009 - OFFICE - RESTROOM - CZ4-8,hourly; !- [J]
Output:Meter,General:InteriorLights:Electricity:Zone:THERMAL ZONE: P1-2-RESTROOM 1,hourly; !- [J]
Output:Meter:Cumulative,General:InteriorLights:Electricity:Zone:THERMAL ZONE: P1-2-RESTROOM 1,hourly; !- [J]
Output:Meter,General:InteriorLights:Electricity:SpaceType:189.1-2009 - OFFICE - RESTROOM - CZ4-8,hourly; !- [J]
Output:Meter:Cumulative,General:InteriorLights:Electricity:SpaceType:189.1-2009 - OFFICE - RESTROOM - CZ4-8,hourly; !- [J]
Output:Meter,Electricity:Zone:THERMAL ZONE: P1-10-RESTROOM 1,hourly; !- [J]
Output:Meter:Cumulative,Electricity:Zone:THERMAL ZONE: P1-10-RESTROOM 1,hourly; !- [J]
Output:Meter,InteriorLights:Electricity:Zone:THERMAL ZONE: P1-10-RESTROOM 1,hourly; !- [J]
Output:Meter:Cumulative,InteriorLights:Electricity:Zone:THERMAL ZONE: P1-10-RESTROOM 1,hourly; !- [J]
Output:Meter,General:InteriorLights:Electricity:Zone:THERMAL ZONE: P1-10-RESTROOM 1,hourly; !- [J]
Output:Meter:Cumulative,General:InteriorLights:Electricity:Zone:THERMAL ZONE: P1-10-RESTROOM 1,hourly; !- [J]
Output:Meter,Electricity:Zone:THERMAL ZONE: P1-8-RESTROOM 1,hourly; !- [J]
Output:Meter:Cumulative,Electricity:Zone:THERMAL ZONE: P1-8-RESTROOM 1,hourly; !- [J]
Output:Meter,InteriorLights:Electricity:Zone:THERMAL ZONE: P1-8-RESTROOM 1,hourly; !- [J]
Output:Meter:Cumulative,InteriorLights:Electricity:Zone:THERMAL ZONE: P1-8-RESTROOM 1,hourly; !- [J]
Output:Meter,General:InteriorLights:Electricity:Zone:THERMAL ZONE: P1-8-RESTROOM 1,hourly; !- [J]
Output:Meter:Cumulative,General:InteriorLights:Electricity:Zone:THERMAL ZONE: P1-8-RESTROOM 1,hourly; !- [J]
Output:Meter,Electricity:Zone:THERMAL ZONE: P2-2-RESTROOM 1,hourly; !- [J]
Output:Meter:Cumulative,Electricity:Zone:THERMAL ZONE: P2-2-RESTROOM 1,hourly; !- [J]
Output:Meter,InteriorLights:Electricity:Zone:THERMAL ZONE: P2-2-RESTROOM 1,hourly; !- [J]
Output:Meter:Cumulative,InteriorLights:Electricity:Zone:THERMAL ZONE: P2-2-RESTROOM 1,hourly; !- [J]
Output:Meter,General:InteriorLights:Electricity:Zone:THERMAL ZONE: P2-2-RESTROOM 1,hourly; !- [J]
Output:Meter:Cumulative,General:InteriorLights:Electricity:Zone:THERMAL ZONE: P2-2-RESTROOM 1,hourly; !- [J]
Output:Meter,Electricity:Zone:THERMAL ZONE: P3-2-RESTROOM 1,hourly; !- [J]
Output:Meter:Cumulative,Electricity:Zone:THERMAL ZONE: P3-2-RESTROOM 1,hourly; !- [J]
Output:Meter,InteriorLights:Electricity:Zone:THERMAL ZONE: P3-2-RESTROOM 1,hourly; !- [J]
Output:Meter:Cumulative,InteriorLights:Electricity:Zone:THERMAL ZONE: P3-2-RESTROOM 1,hourly; !- [J]
Output:Meter,General:InteriorLights:Electricity:Zone:THERMAL ZONE: P3-2-RESTROOM 1,hourly; !- [J]
Output:Meter:Cumulative,General:InteriorLights:Electricity:Zone:THERMAL ZONE: P3-2-RESTROOM 1,hourly; !- [J]
Output:Meter,Electricity:Zone:THERMAL ZONE: HALL-1-1,hourly; !- [J]
Output:Meter:Cumulative,Electricity:Zone:THERMAL ZONE: HALL-1-1,hourly; !- [J]
Output:Meter,Electricity:SpaceType:189.1-2009 - OFFICE - WHOLEBUILDING - LG OFFICE - CZ4-8,hourly; !- [J]
Output:Meter:Cumulative,Electricity:SpaceType:189.1-2009 - OFFICE - WHOLEBUILDING - LG OFFICE - CZ4-8,hourly; !- [J]
Output:Meter,InteriorLights:Electricity:Zone:THERMAL ZONE: HALL-1-1,hourly; !- [J]
Output:Meter:Cumulative,InteriorLights:Electricity:Zone:THERMAL ZONE: HALL-1-1,hourly; !- [J]
Output:Meter,InteriorLights:Electricity:SpaceType:189.1-2009 - OFFICE - WHOLEBUILDING - LG OFFICE - CZ4-8,hourly; !- [J]
Output:Meter:Cumulative,InteriorLights:Electricity:SpaceType:189.1-2009 - OFFICE - WHOLEBUILDING - LG OFFICE - CZ4-8,hourly; !- [J]
Output:Meter,General:InteriorLights:Electricity:Zone:THERMAL ZONE: HALL-1-1,hourly; !- [J]
Output:Meter:Cumulative,General:InteriorLights:Electricity:Zone:THERMAL ZONE: HALL-1-1,hourly; !- [J]
Output:Meter,General:InteriorLights:Electricity:SpaceType:189.1-2009 - OFFICE - WHOLEBUILDING - LG OFFICE - CZ4-8,hourly; !- [J]
Output:Meter:Cumulative,General:InteriorLights:Electricity:SpaceType:189.1-2009 - OFFICE - WHOLEBUILDING - LG OFFICE - CZ4-8,hourly; !- [J]
Output:Meter,Electricity:Zone:THERMAL ZONE: HALL-1-13,hourly; !- [J]
Output:Meter:Cumulative,Electricity:Zone:THERMAL ZONE: HALL-1-13,hourly; !- [J]
Output:Meter,InteriorLights:Electricity:Zone:THERMAL ZONE: HALL-1-13,hourly; !- [J]
Output:Meter:Cumulative,InteriorLights:Electricity:Zone:THERMAL ZONE: HALL-1-13,hourly; !- [J]
Output:Meter,General:InteriorLights:Electricity:Zone:THERMAL ZONE: HALL-1-13,hourly; !- [J]
Output:Meter:Cumulative,General:InteriorLights:Electricity:Zone:THERMAL ZONE: HALL-1-13,hourly; !- [J]
Output:Meter,Electricity:Zone:THERMAL ZONE: HALL-1-12,hourly; !- [J]
Output:Meter:Cumulative,Electricity:Zone:THERMAL ZONE: HALL-1-12,hourly; !- [J]
Output:Meter,InteriorLights:Electricity:Zone:THERMAL ZONE: HALL-1-12,hourly; !- [J]
Output:Meter:Cumulative,InteriorLights:Electricity:Zone:THERMAL ZONE: HALL-1-12,hourly; !- [J]
Output:Meter,General:InteriorLights:Electricity:Zone:THERMAL ZONE: HALL-1-12,hourly; !- [J]
Output:Meter:Cumulative,General:InteriorLights:Electricity:Zone:THERMAL ZONE: HALL-1-12,hourly; !- [J]
Output:Meter,Electricity:Zone:THERMAL ZONE: HALL-2-3,hourly; !- [J]
Output:Meter:Cumulative,Electricity:Zone:THERMAL ZONE: HALL-2-3,hourly; !- [J]
Output:Meter,InteriorLights:Electricity:Zone:THERMAL ZONE: HALL-2-3,hourly; !- [J]
Output:Meter:Cumulative,InteriorLights:Electricity:Zone:THERMAL ZONE: HALL-2-3,hourly; !- [J]
Output:Meter,General:InteriorLights:Electricity:Zone:THERMAL ZONE: HALL-2-3,hourly; !- [J]
Output:Meter:Cumulative,General:InteriorLights:Electricity:Zone:THERMAL ZONE: HALL-2-3,hourly; !- [J]
Output:Meter,Electricity:Zone:THERMAL ZONE: HALL-1-2,hourly; !- [J]
Output:Meter:Cumulative,Electricity:Zone:THERMAL ZONE: HALL-1-2,hourly; !- [J]
Output:Meter,InteriorLights:Electricity:Zone:THERMAL ZONE: HALL-1-2,hourly; !- [J]
Output:Meter:Cumulative,InteriorLights:Electricity:Zone:THERMAL ZONE: HALL-1-2,hourly; !- [J]
Output:Meter,General:InteriorLights:Electricity:Zone:THERMAL ZONE: HALL-1-2,hourly; !- [J]
Output:Meter:Cumulative,General:InteriorLights:Electricity:Zone:THERMAL ZONE: HALL-1-2,hourly; !- [J]
Output:Meter,Electricity:Zone:THERMAL ZONE: HALL-1-9,hourly; !- [J]
Output:Meter:Cumulative,Electricity:Zone:THERMAL ZONE: HALL-1-9,hourly; !- [J]
Output:Meter,InteriorLights:Electricity:Zone:THERMAL ZONE: HALL-1-9,hourly; !- [J]
Output:Meter:Cumulative,InteriorLights:Electricity:Zone:THERMAL ZONE: HALL-1-9,hourly; !- [J]
Output:Meter,General:InteriorLights:Electricity:Zone:THERMAL ZONE: HALL-1-9,hourly; !- [J]
Output:Meter:Cumulative,General:InteriorLights:Electricity:Zone:THERMAL ZONE: HALL-1-9,hourly; !- [J]
Output:Meter,Electricity:Zone:THERMAL ZONE: HALL-1-6,hourly; !- [J]
Output:Meter:Cumulative,Electricity:Zone:THERMAL ZONE: HALL-1-6,hourly; !- [J]
Output:Meter,InteriorLights:Electricity:Zone:THERMAL ZONE: HALL-1-6,hourly; !- [J]
Output:Meter:Cumulative,InteriorLights:Electricity:Zone:THERMAL ZONE: HALL-1-6,hourly; !- [J]
Output:Meter,General:InteriorLights:Electricity:Zone:THERMAL ZONE: HALL-1-6,hourly; !- [J]
Output:Meter:Cumulative,General:InteriorLights:Electricity:Zone:THERMAL ZONE: HALL-1-6,hourly; !- [J]
Output:Meter,Electricity:Zone:THERMAL ZONE: P1-2-BREAKROOM 1,hourly; !- [J]
Output:Meter:Cumulative,Electricity:Zone:THERMAL ZONE: P1-2-BREAKROOM 1,hourly; !- [J]
Output:Meter,InteriorLights:Electricity:Zone:THERMAL ZONE: P1-2-BREAKROOM 1,hourly; !- [J]
Output:Meter:Cumulative,InteriorLights:Electricity:Zone:THERMAL ZONE: P1-2-BREAKROOM 1,hourly; !- [J]
Output:Meter,General:InteriorLights:Electricity:Zone:THERMAL ZONE: P1-2-BREAKROOM 1,hourly; !- [J]
Output:Meter:Cumulative,General:InteriorLights:Electricity:Zone:THERMAL ZONE: P1-2-BREAKROOM 1,hourly; !- [J]
Output:Meter,Electricity:Zone:THERMAL ZONE: HALL-1-11,hourly; !- [J]
Output:Meter:Cumulative,Electricity:Zone:THERMAL ZONE: HALL-1-11,hourly; !- [J]
Output:Meter,InteriorLights:Electricity:Zone:THERMAL ZONE: HALL-1-11,hourly; !- [J]
Output:Meter:Cumulative,InteriorLights:Electricity:Zone:THERMAL ZONE: HALL-1-11,hourly; !- [J]
Output:Meter,General:InteriorLights:Electricity:Zone:THERMAL ZONE: HALL-1-11,hourly; !- [J]
Output:Meter:Cumulative,General:InteriorLights:Electricity:Zone:THERMAL ZONE: HALL-1-11,hourly; !- [J]
Output:Meter,Electricity:Zone:THERMAL ZONE: HALL-1-3,hourly; !- [J]
Output:Meter:Cumulative,Electricity:Zone:THERMAL ZONE: HALL-1-3,hourly; !- [J]
Output:Meter,InteriorLights:Electricity:Zone:THERMAL ZONE: HALL-1-3,hourly; !- [J]
Output:Meter:Cumulative,InteriorLights:Electricity:Zone:THERMAL ZONE: HALL-1-3,hourly; !- [J]
Output:Meter,General:InteriorLights:Electricity:Zone:THERMAL ZONE: HALL-1-3,hourly; !- [J]
Output:Meter:Cumulative,General:InteriorLights:Electricity:Zone:THERMAL ZONE: HALL-1-3,hourly; !- [J]
Output:Meter,Electricity:Zone:THERMAL ZONE: HALL-1-4,hourly; !- [J]
Output:Meter:Cumulative,Electricity:Zone:THERMAL ZONE: HALL-1-4,hourly; !- [J]
Output:Meter,InteriorLights:Electricity:Zone:THERMAL ZONE: HALL-1-4,hourly; !- [J]
Output:Meter:Cumulative,InteriorLights:Electricity:Zone:THERMAL ZONE: HALL-1-4,hourly; !- [J]
Output:Meter,General:InteriorLights:Electricity:Zone:THERMAL ZONE: HALL-1-4,hourly; !- [J]
Output:Meter:Cumulative,General:InteriorLights:Electricity:Zone:THERMAL ZONE: HALL-1-4,hourly; !- [J]
Output:Meter,Electricity:Zone:THERMAL ZONE: HALL-2-1,hourly; !- [J]
Output:Meter:Cumulative,Electricity:Zone:THERMAL ZONE: HALL-2-1,hourly; !- [J]
Output:Meter,InteriorLights:Electricity:Zone:THERMAL ZONE: HALL-2-1,hourly; !- [J]
Output:Meter:Cumulative,InteriorLights:Electricity:Zone:THERMAL ZONE: HALL-2-1,hourly; !- [J]
Output:Meter,General:InteriorLights:Electricity:Zone:THERMAL ZONE: HALL-2-1,hourly; !- [J]
Output:Meter:Cumulative,General:InteriorLights:Electricity:Zone:THERMAL ZONE: HALL-2-1,hourly; !- [J]
Output:Meter,Electricity:Zone:THERMAL ZONE: HALL-1-10,hourly; !- [J]
Output:Meter:Cumulative,Electricity:Zone:THERMAL ZONE: HALL-1-10,hourly; !- [J]
Output:Meter,InteriorLights:Electricity:Zone:THERMAL ZONE: HALL-1-10,hourly; !- [J]
Output:Meter:Cumulative,InteriorLights:Electricity:Zone:THERMAL ZONE: HALL-1-10,hourly; !- [J]
Output:Meter,General:InteriorLights:Electricity:Zone:THERMAL ZONE: HALL-1-10,hourly; !- [J]
Output:Meter:Cumulative,General:InteriorLights:Electricity:Zone:THERMAL ZONE: HALL-1-10,hourly; !- [J]
Output:Meter,Electricity:Zone:THERMAL ZONE: HALL-1-5,hourly; !- [J]
Output:Meter:Cumulative,Electricity:Zone:THERMAL ZONE: HALL-1-5,hourly; !- [J]
Output:Meter,InteriorLights:Electricity:Zone:THERMAL ZONE: HALL-1-5,hourly; !- [J]
Output:Meter:Cumulative,InteriorLights:Electricity:Zone:THERMAL ZONE: HALL-1-5,hourly; !- [J]
Output:Meter,General:InteriorLights:Electricity:Zone:THERMAL ZONE: HALL-1-5,hourly; !- [J]
Output:Meter:Cumulative,General:InteriorLights:Electricity:Zone:THERMAL ZONE: HALL-1-5,hourly; !- [J]
Output:Meter,Electricity:Zone:THERMAL ZONE: HALL-1-7,hourly; !- [J]
Output:Meter:Cumulative,Electricity:Zone:THERMAL ZONE: HALL-1-7,hourly; !- [J]
Output:Meter,InteriorLights:Electricity:Zone:THERMAL ZONE: HALL-1-7,hourly; !- [J]
Output:Meter:Cumulative,InteriorLights:Electricity:Zone:THERMAL ZONE: HALL-1-7,hourly; !- [J]
Output:Meter,General:InteriorLights:Electricity:Zone:THERMAL ZONE: HALL-1-7,hourly; !- [J]
Output:Meter:Cumulative,General:InteriorLights:Electricity:Zone:THERMAL ZONE: HALL-1-7,hourly; !- [J]
Output:Meter,Electricity:Zone:THERMAL ZONE: HALL-1-8,hourly; !- [J]
Output:Meter:Cumulative,Electricity:Zone:THERMAL ZONE: HALL-1-8,hourly; !- [J]
Output:Meter,InteriorLights:Electricity:Zone:THERMAL ZONE: HALL-1-8,hourly; !- [J]
Output:Meter:Cumulative,InteriorLights:Electricity:Zone:THERMAL ZONE: HALL-1-8,hourly; !- [J]
Output:Meter,General:InteriorLights:Electricity:Zone:THERMAL ZONE: HALL-1-8,hourly; !- [J]
Output:Meter:Cumulative,General:InteriorLights:Electricity:Zone:THERMAL ZONE: HALL-1-8,hourly; !- [J]
Output:Meter,Electricity:Zone:THERMAL ZONE: HALL-4-4,hourly; !- [J]
Output:Meter:Cumulative,Electricity:Zone:THERMAL ZONE: HALL-4-4,hourly; !- [J]
Output:Meter,InteriorLights:Electricity:Zone:THERMAL ZONE: HALL-4-4,hourly; !- [J]
Output:Meter:Cumulative,InteriorLights:Electricity:Zone:THERMAL ZONE: HALL-4-4,hourly; !- [J]
Output:Meter,General:InteriorLights:Electricity:Zone:THERMAL ZONE: HALL-4-4,hourly; !- [J]
Output:Meter:Cumulative,General:InteriorLights:Electricity:Zone:THERMAL ZONE: HALL-4-4,hourly; !- [J]
Output:Meter,Electricity:Zone:THERMAL ZONE: HALL-4-3,hourly; !- [J]
Output:Meter:Cumulative,Electricity:Zone:THERMAL ZONE: HALL-4-3,hourly; !- [J]
Output:Meter,InteriorLights:Electricity:Zone:THERMAL ZONE: HALL-4-3,hourly; !- [J]
Output:Meter:Cumulative,InteriorLights:Electricity:Zone:THERMAL ZONE: HALL-4-3,hourly; !- [J]
Output:Meter,General:InteriorLights:Electricity:Zone:THERMAL ZONE: HALL-4-3,hourly; !- [J]
Output:Meter:Cumulative,General:InteriorLights:Electricity:Zone:THERMAL ZONE: HALL-4-3,hourly; !- [J]
Output:Meter,Electricity:Zone:THERMAL ZONE: HALL-4-2,hourly; !- [J]
Output:Meter:Cumulative,Electricity:Zone:THERMAL ZONE: HALL-4-2,hourly; !- [J]
Output:Meter,InteriorLights:Electricity:Zone:THERMAL ZONE: HALL-4-2,hourly; !- [J]
Output:Meter:Cumulative,InteriorLights:Electricity:Zone:THERMAL ZONE: HALL-4-2,hourly; !- [J]
Output:Meter,General:InteriorLights:Electricity:Zone:THERMAL ZONE: HALL-4-2,hourly; !- [J]
Output:Meter:Cumulative,General:InteriorLights:Electricity:Zone:THERMAL ZONE: HALL-4-2,hourly; !- [J]
Output:Meter,Electricity:Zone:THERMAL ZONE: HALL-4-1,hourly; !- [J]
Output:Meter:Cumulative,Electricity:Zone:THERMAL ZONE: HALL-4-1,hourly; !- [J]
Output:Meter,InteriorLights:Electricity:Zone:THERMAL ZONE: HALL-4-1,hourly; !- [J]
Output:Meter:Cumulative,InteriorLights:Electricity:Zone:THERMAL ZONE: HALL-4-1,hourly; !- [J]
Output:Meter,General:InteriorLights:Electricity:Zone:THERMAL ZONE: HALL-4-1,hourly; !- [J]
Output:Meter:Cumulative,General:InteriorLights:Electricity:Zone:THERMAL ZONE: HALL-4-1,hourly; !- [J]
Output:Meter,Electricity:Zone:THERMAL ZONE: HALL-2-2,hourly; !- [J]
Output:Meter:Cumulative,Electricity:Zone:THERMAL ZONE: HALL-2-2,hourly; !- [J]
Output:Meter,InteriorLights:Electricity:Zone:THERMAL ZONE: HALL-2-2,hourly; !- [J]
Output:Meter:Cumulative,InteriorLights:Electricity:Zone:THERMAL ZONE: HALL-2-2,hourly; !- [J]
Output:Meter,General:InteriorLights:Electricity:Zone:THERMAL ZONE: HALL-2-2,hourly; !- [J]
Output:Meter:Cumulative,General:InteriorLights:Electricity:Zone:THERMAL ZONE: HALL-2-2,hourly; !- [J]
Output:Meter,Electricity:Zone:THERMAL ZONE: HALL-3-1,hourly; !- [J]
Output:Meter:Cumulative,Electricity:Zone:THERMAL ZONE: HALL-3-1,hourly; !- [J]
Output:Meter,InteriorLights:Electricity:Zone:THERMAL ZONE: HALL-3-1,hourly; !- [J]
Output:Meter:Cumulative,InteriorLights:Electricity:Zone:THERMAL ZONE: HALL-3-1,hourly; !- [J]
Output:Meter,General:InteriorLights:Electricity:Zone:THERMAL ZONE: HALL-3-1,hourly; !- [J]
Output:Meter:Cumulative,General:InteriorLights:Electricity:Zone:THERMAL ZONE: HALL-3-1,hourly; !- [J]
Output:Meter,Electricity:Zone:THERMAL ZONE: HALL-3-2,hourly; !- [J]
Output:Meter:Cumulative,Electricity:Zone:THERMAL ZONE: HALL-3-2,hourly; !- [J]
Output:Meter,InteriorLights:Electricity:Zone:THERMAL ZONE: HALL-3-2,hourly; !- [J]
Output:Meter:Cumulative,InteriorLights:Electricity:Zone:THERMAL ZONE: HALL-3-2,hourly; !- [J]
Output:Meter,General:InteriorLights:Electricity:Zone:THERMAL ZONE: HALL-3-2,hourly; !- [J]
Output:Meter:Cumulative,General:InteriorLights:Electricity:Zone:THERMAL ZONE: HALL-3-2,hourly; !- [J]
Output:Meter,Electricity:Zone:THERMAL ZONE: HALL-3-3,hourly; !- [J]
Output:Meter:Cumulative,Electricity:Zone:THERMAL ZONE: HALL-3-3,hourly; !- [J]
Output:Meter,InteriorLights:Electricity:Zone:THERMAL ZONE: HALL-3-3,hourly; !- [J]
Output:Meter:Cumulative,InteriorLights:Electricity:Zone:THERMAL ZONE: HALL-3-3,hourly; !- [J]
Output:Meter,General:InteriorLights:Electricity:Zone:THERMAL ZONE: HALL-3-3,hourly; !- [J]
Output:Meter:Cumulative,General:InteriorLights:Electricity:Zone:THERMAL ZONE: HALL-3-3,hourly; !- [J]
Output:Meter,Electricity:Zone:THERMAL ZONE: P1-1-DINING 1,hourly; !- [J]
Output:Meter:Cumulative,Electricity:Zone:THERMAL ZONE: P1-1-DINING 1,hourly; !- [J]
Output:Meter,Electricity:SpaceType:OFFICE DINING,hourly; !- [J]
Output:Meter:Cumulative,Electricity:SpaceType:OFFICE DINING,hourly; !- [J]
Output:Meter,InteriorLights:Electricity:Zone:THERMAL ZONE: P1-1-DINING 1,hourly; !- [J]
Output:Meter:Cumulative,InteriorLights:Electricity:Zone:THERMAL ZONE: P1-1-DINING 1,hourly; !- [J]
Output:Meter,InteriorLights:Electricity:SpaceType:OFFICE DINING,hourly; !- [J]
Output:Meter:Cumulative,InteriorLights:Electricity:SpaceType:OFFICE DINING,hourly; !- [J]
Output:Meter,General:InteriorLights:Electricity:Zone:THERMAL ZONE: P1-1-DINING 1,hourly; !- [J]
Output:Meter:Cumulative,General:InteriorLights:Electricity:Zone:THERMAL ZONE: P1-1-DINING 1,hourly; !- [J]
Output:Meter,General:InteriorLights:Electricity:SpaceType:OFFICE DINING,hourly; !- [J]
Output:Meter:Cumulative,General:InteriorLights:Electricity:SpaceType:OFFICE DINING,hourly; !- [J]
Output:Meter,Electricity:Zone:THERMAL ZONE: P1-7-DINING 1,hourly; !- [J]
Output:Meter:Cumulative,Electricity:Zone:THERMAL ZONE: P1-7-DINING 1,hourly; !- [J]
Output:Meter,InteriorLights:Electricity:Zone:THERMAL ZONE: P1-7-DINING 1,hourly; !- [J]
Output:Meter:Cumulative,InteriorLights:Electricity:Zone:THERMAL ZONE: P1-7-DINING 1,hourly; !- [J]
Output:Meter,General:InteriorLights:Electricity:Zone:THERMAL ZONE: P1-7-DINING 1,hourly; !- [J]
Output:Meter:Cumulative,General:InteriorLights:Electricity:Zone:THERMAL ZONE: P1-7-DINING 1,hourly; !- [J]
Output:Meter,Electricity:Zone:THERMAL ZONE: P1-2-DINING 1,hourly; !- [J]
Output:Meter:Cumulative,Electricity:Zone:THERMAL ZONE: P1-2-DINING 1,hourly; !- [J]
Output:Meter,InteriorLights:Electricity:Zone:THERMAL ZONE: P1-2-DINING 1,hourly; !- [J]
Output:Meter:Cumulative,InteriorLights:Electricity:Zone:THERMAL ZONE: P1-2-DINING 1,hourly; !- [J]
Output:Meter,General:InteriorLights:Electricity:Zone:THERMAL ZONE: P1-2-DINING 1,hourly; !- [J]
Output:Meter:Cumulative,General:InteriorLights:Electricity:Zone:THERMAL ZONE: P1-2-DINING 1,hourly; !- [J]
Output:Meter,Electricity:Zone:THERMAL ZONE: P1-4-DINING 1,hourly; !- [J]
Output:Meter:Cumulative,Electricity:Zone:THERMAL ZONE: P1-4-DINING 1,hourly; !- [J]
Output:Meter,InteriorLights:Electricity:Zone:THERMAL ZONE: P1-4-DINING 1,hourly; !- [J]
Output:Meter:Cumulative,InteriorLights:Electricity:Zone:THERMAL ZONE: P1-4-DINING 1,hourly; !- [J]
Output:Meter,General:InteriorLights:Electricity:Zone:THERMAL ZONE: P1-4-DINING 1,hourly; !- [J]
Output:Meter:Cumulative,General:InteriorLights:Electricity:Zone:THERMAL ZONE: P1-4-DINING 1,hourly; !- [J]
Output:Meter,Electricity:Zone:THERMAL ZONE: P3-2-DINING 1,hourly; !- [J]
Output:Meter:Cumulative,Electricity:Zone:THERMAL ZONE: P3-2-DINING 1,hourly; !- [J]
Output:Meter,InteriorLights:Electricity:Zone:THERMAL ZONE: P3-2-DINING 1,hourly; !- [J]
Output:Meter:Cumulative,InteriorLights:Electricity:Zone:THERMAL ZONE: P3-2-DINING 1,hourly; !- [J]
Output:Meter,General:InteriorLights:Electricity:Zone:THERMAL ZONE: P3-2-DINING 1,hourly; !- [J]
Output:Meter:Cumulative,General:InteriorLights:Electricity:Zone:THERMAL ZONE: P3-2-DINING 1,hourly; !- [J]
Output:Meter,Electricity:Zone:THERMAL ZONE: P3-1-DINING 1,hourly; !- [J]
Output:Meter:Cumulative,Electricity:Zone:THERMAL ZONE: P3-1-DINING 1,hourly; !- [J]
Output:Meter,InteriorLights:Electricity:Zone:THERMAL ZONE: P3-1-DINING 1,hourly; !- [J]
Output:Meter:Cumulative,InteriorLights:Electricity:Zone:THERMAL ZONE: P3-1-DINING 1,hourly; !- [J]
Output:Meter,General:InteriorLights:Electricity:Zone:THERMAL ZONE: P3-1-DINING 1,hourly; !- [J]
Output:Meter:Cumulative,General:InteriorLights:Electricity:Zone:THERMAL ZONE: P3-1-DINING 1,hourly; !- [J]
Output:Meter,Electricity:Zone:THERMAL ZONE: P3-1-COMMERCE 1,hourly; !- [J]
Output:Meter:Cumulative,Electricity:Zone:THERMAL ZONE: P3-1-COMMERCE 1,hourly; !- [J]
Output:Meter,Electricity:SpaceType:RETAIL RETAIL,hourly; !- [J]
Output:Meter:Cumulative,Electricity:SpaceType:RETAIL RETAIL,hourly; !- [J]
Output:Meter,InteriorLights:Electricity:Zone:THERMAL ZONE: P3-1-COMMERCE 1,hourly; !- [J]
Output:Meter:Cumulative,InteriorLights:Electricity:Zone:THERMAL ZONE: P3-1-COMMERCE 1,hourly; !- [J]
Output:Meter,InteriorLights:Electricity:SpaceType:RETAIL RETAIL,hourly; !- [J]
Output:Meter:Cumulative,InteriorLights:Electricity:SpaceType:RETAIL RETAIL,hourly; !- [J]
Output:Meter,General:InteriorLights:Electricity:Zone:THERMAL ZONE: P3-1-COMMERCE 1,hourly; !- [J]
Output:Meter:Cumulative,General:InteriorLights:Electricity:Zone:THERMAL ZONE: P3-1-COMMERCE 1,hourly; !- [J]
Output:Meter,General:InteriorLights:Electricity:SpaceType:RETAIL RETAIL,hourly; !- [J]
Output:Meter:Cumulative,General:InteriorLights:Electricity:SpaceType:RETAIL RETAIL,hourly; !- [J]
Output:Meter,Electricity:Zone:THERMAL ZONE: P2-1-COMMERCE 2,hourly; !- [J]
Output:Meter:Cumulative,Electricity:Zone:THERMAL ZONE: P2-1-COMMERCE 2,hourly; !- [J]
Output:Meter,InteriorLights:Electricity:Zone:THERMAL ZONE: P2-1-COMMERCE 2,hourly; !- [J]
Output:Meter:Cumulative,InteriorLights:Electricity:Zone:THERMAL ZONE: P2-1-COMMERCE 2,hourly; !- [J]
Output:Meter,General:InteriorLights:Electricity:Zone:THERMAL ZONE: P2-1-COMMERCE 2,hourly; !- [J]
Output:Meter:Cumulative,General:InteriorLights:Electricity:Zone:THERMAL ZONE: P2-1-COMMERCE 2,hourly; !- [J]
Output:Meter,Electricity:Zone:THERMAL ZONE: P1-1-COMMERCE 1,hourly; !- [J]
Output:Meter:Cumulative,Electricity:Zone:THERMAL ZONE: P1-1-COMMERCE 1,hourly; !- [J]
Output:Meter,InteriorLights:Electricity:Zone:THERMAL ZONE: P1-1-COMMERCE 1,hourly; !- [J]
Output:Meter:Cumulative,InteriorLights:Electricity:Zone:THERMAL ZONE: P1-1-COMMERCE 1,hourly; !- [J]
Output:Meter,General:InteriorLights:Electricity:Zone:THERMAL ZONE: P1-1-COMMERCE 1,hourly; !- [J]
Output:Meter:Cumulative,General:InteriorLights:Electricity:Zone:THERMAL ZONE: P1-1-COMMERCE 1,hourly; !- [J]
Output:Meter,Electricity:Zone:THERMAL ZONE: P1-11-COMMERCE 2,hourly; !- [J]
Output:Meter:Cumulative,Electricity:Zone:THERMAL ZONE: P1-11-COMMERCE 2,hourly; !- [J]
Output:Meter,InteriorLights:Electricity:Zone:THERMAL ZONE: P1-11-COMMERCE 2,hourly; !- [J]
Output:Meter:Cumulative,InteriorLights:Electricity:Zone:THERMAL ZONE: P1-11-COMMERCE 2,hourly; !- [J]
Output:Meter,General:InteriorLights:Electricity:Zone:THERMAL ZONE: P1-11-COMMERCE 2,hourly; !- [J]
Output:Meter:Cumulative,General:InteriorLights:Electricity:Zone:THERMAL ZONE: P1-11-COMMERCE 2,hourly; !- [J]
Output:Meter,Electricity:Zone:THERMAL ZONE: P4-1-COMMERCE 1,hourly; !- [J]
Output:Meter:Cumulative,Electricity:Zone:THERMAL ZONE: P4-1-COMMERCE 1,hourly; !- [J]
Output:Meter,InteriorLights:Electricity:Zone:THERMAL ZONE: P4-1-COMMERCE 1,hourly; !- [J]
Output:Meter:Cumulative,InteriorLights:Electricity:Zone:THERMAL ZONE: P4-1-COMMERCE 1,hourly; !- [J]
Output:Meter,General:InteriorLights:Electricity:Zone:THERMAL ZONE: P4-1-COMMERCE 1,hourly; !- [J]
Output:Meter:Cumulative,General:InteriorLights:Electricity:Zone:THERMAL ZONE: P4-1-COMMERCE 1,hourly; !- [J]
Output:Meter,Electricity:Zone:THERMAL ZONE: P1-11-COMMERCE 1,hourly; !- [J]
Output:Meter:Cumulative,Electricity:Zone:THERMAL ZONE: P1-11-COMMERCE 1,hourly; !- [J]
Output:Meter,InteriorLights:Electricity:Zone:THERMAL ZONE: P1-11-COMMERCE 1,hourly; !- [J]
Output:Meter:Cumulative,InteriorLights:Electricity:Zone:THERMAL ZONE: P1-11-COMMERCE 1,hourly; !- [J]
Output:Meter,General:InteriorLights:Electricity:Zone:THERMAL ZONE: P1-11-COMMERCE 1,hourly; !- [J]
Output:Meter:Cumulative,General:InteriorLights:Electricity:Zone:THERMAL ZONE: P1-11-COMMERCE 1,hourly; !- [J]
Output:Meter,Electricity:Zone:THERMAL ZONE: P1-3-COMMERCE 1,hourly; !- [J]
Output:Meter:Cumulative,Electricity:Zone:THERMAL ZONE: P1-3-COMMERCE 1,hourly; !- [J]
Output:Meter,InteriorLights:Electricity:Zone:THERMAL ZONE: P1-3-COMMERCE 1,hourly; !- [J]
Output:Meter:Cumulative,InteriorLights:Electricity:Zone:THERMAL ZONE: P1-3-COMMERCE 1,hourly; !- [J]
Output:Meter,General:InteriorLights:Electricity:Zone:THERMAL ZONE: P1-3-COMMERCE 1,hourly; !- [J]
Output:Meter:Cumulative,General:InteriorLights:Electricity:Zone:THERMAL ZONE: P1-3-COMMERCE 1,hourly; !- [J]
Output:Meter,Electricity:Zone:THERMAL ZONE: P2-1-COMMERCE 3,hourly; !- [J]
Output:Meter:Cumulative,Electricity:Zone:THERMAL ZONE: P2-1-COMMERCE 3,hourly; !- [J]
Output:Meter,InteriorLights:Electricity:Zone:THERMAL ZONE: P2-1-COMMERCE 3,hourly; !- [J]
Output:Meter:Cumulative,InteriorLights:Electricity:Zone:THERMAL ZONE: P2-1-COMMERCE 3,hourly; !- [J]
Output:Meter,General:InteriorLights:Electricity:Zone:THERMAL ZONE: P2-1-COMMERCE 3,hourly; !- [J]
Output:Meter:Cumulative,General:InteriorLights:Electricity:Zone:THERMAL ZONE: P2-1-COMMERCE 3,hourly; !- [J]
Output:Meter,Electricity:Zone:THERMAL ZONE: P1-4-COMMERCE 1,hourly; !- [J]
Output:Meter:Cumulative,Electricity:Zone:THERMAL ZONE: P1-4-COMMERCE 1,hourly; !- [J]
Output:Meter,InteriorLights:Electricity:Zone:THERMAL ZONE: P1-4-COMMERCE 1,hourly; !- [J]
Output:Meter:Cumulative,InteriorLights:Electricity:Zone:THERMAL ZONE: P1-4-COMMERCE 1,hourly; !- [J]
Output:Meter,General:InteriorLights:Electricity:Zone:THERMAL ZONE: P1-4-COMMERCE 1,hourly; !- [J]
Output:Meter:Cumulative,General:InteriorLights:Electricity:Zone:THERMAL ZONE: P1-4-COMMERCE 1,hourly; !- [J]
Output:Meter,Electricity:Zone:THERMAL ZONE: P4-2-COMMERCE 2,hourly; !- [J]
Output:Meter:Cumulative,Electricity:Zone:THERMAL ZONE: P4-2-COMMERCE 2,hourly; !- [J]
Output:Meter,InteriorLights:Electricity:Zone:THERMAL ZONE: P4-2-COMMERCE 2,hourly; !- [J]
Output:Meter:Cumulative,InteriorLights:Electricity:Zone:THERMAL ZONE: P4-2-COMMERCE 2,hourly; !- [J]
Output:Meter,General:InteriorLights:Electricity:Zone:THERMAL ZONE: P4-2-COMMERCE 2,hourly; !- [J]
Output:Meter:Cumulative,General:InteriorLights:Electricity:Zone:THERMAL ZONE: P4-2-COMMERCE 2,hourly; !- [J]
Output:Meter,Electricity:Zone:THERMAL ZONE: P1-9-COMMERCE 1,hourly; !- [J]
Output:Meter:Cumulative,Electricity:Zone:THERMAL ZONE: P1-9-COMMERCE 1,hourly; !- [J]
Output:Meter,InteriorLights:Electricity:Zone:THERMAL ZONE: P1-9-COMMERCE 1,hourly; !- [J]
Output:Meter:Cumulative,InteriorLights:Electricity:Zone:THERMAL ZONE: P1-9-COMMERCE 1,hourly; !- [J]
Output:Meter,General:InteriorLights:Electricity:Zone:THERMAL ZONE: P1-9-COMMERCE 1,hourly; !- [J]
Output:Meter:Cumulative,General:InteriorLights:Electricity:Zone:THERMAL ZONE: P1-9-COMMERCE 1,hourly; !- [J]
Output:Meter,Electricity:Zone:THERMAL ZONE: P4-2-COMMERCE 1,hourly; !- [J]
Output:Meter:Cumulative,Electricity:Zone:THERMAL ZONE: P4-2-COMMERCE 1,hourly; !- [J]
Output:Meter,InteriorLights:Electricity:Zone:THERMAL ZONE: P4-2-COMMERCE 1,hourly; !- [J]
Output:Meter:Cumulative,InteriorLights:Electricity:Zone:THERMAL ZONE: P4-2-COMMERCE 1,hourly; !- [J]
Output:Meter,General:InteriorLights:Electricity:Zone:THERMAL ZONE: P4-2-COMMERCE 1,hourly; !- [J]
Output:Meter:Cumulative,General:InteriorLights:Electricity:Zone:THERMAL ZONE: P4-2-COMMERCE 1,hourly; !- [J]
Output:Meter,Electricity:Zone:THERMAL ZONE: P1-5-COMMERCE 1,hourly; !- [J]
Output:Meter:Cumulative,Electricity:Zone:THERMAL ZONE: P1-5-COMMERCE 1,hourly; !- [J]
Output:Meter,InteriorLights:Electricity:Zone:THERMAL ZONE: P1-5-COMMERCE 1,hourly; !- [J]
Output:Meter:Cumulative,InteriorLights:Electricity:Zone:THERMAL ZONE: P1-5-COMMERCE 1,hourly; !- [J]
Output:Meter,General:InteriorLights:Electricity:Zone:THERMAL ZONE: P1-5-COMMERCE 1,hourly; !- [J]
Output:Meter:Cumulative,General:InteriorLights:Electricity:Zone:THERMAL ZONE: P1-5-COMMERCE 1,hourly; !- [J]
Output:Meter,Electricity:Zone:THERMAL ZONE: P1-6-COMMERCE 1,hourly; !- [J]
Output:Meter:Cumulative,Electricity:Zone:THERMAL ZONE: P1-6-COMMERCE 1,hourly; !- [J]
Output:Meter,InteriorLights:Electricity:Zone:THERMAL ZONE: P1-6-COMMERCE 1,hourly; !- [J]
Output:Meter:Cumulative,InteriorLights:Electricity:Zone:THERMAL ZONE: P1-6-COMMERCE 1,hourly; !- [J]
Output:Meter,General:InteriorLights:Electricity:Zone:THERMAL ZONE: P1-6-COMMERCE 1,hourly; !- [J]
Output:Meter:Cumulative,General:InteriorLights:Electricity:Zone:THERMAL ZONE: P1-6-COMMERCE 1,hourly; !- [J]
Output:Meter,Electricity:Zone:THERMAL ZONE: P4-3-COMMERCE 2,hourly; !- [J]
Output:Meter:Cumulative,Electricity:Zone:THERMAL ZONE: P4-3-COMMERCE 2,hourly; !- [J]
Output:Meter,InteriorLights:Electricity:Zone:THERMAL ZONE: P4-3-COMMERCE 2,hourly; !- [J]
Output:Meter:Cumulative,InteriorLights:Electricity:Zone:THERMAL ZONE: P4-3-COMMERCE 2,hourly; !- [J]
Output:Meter,General:InteriorLights:Electricity:Zone:THERMAL ZONE: P4-3-COMMERCE 2,hourly; !- [J]
Output:Meter:Cumulative,General:InteriorLights:Electricity:Zone:THERMAL ZONE: P4-3-COMMERCE 2,hourly; !- [J]
Output:Meter,Electricity:Zone:THERMAL ZONE: P4-3-COMMERCE 1,hourly; !- [J]
Output:Meter:Cumulative,Electricity:Zone:THERMAL ZONE: P4-3-COMMERCE 1,hourly; !- [J]
Output:Meter,InteriorLights:Electricity:Zone:THERMAL ZONE: P4-3-COMMERCE 1,hourly; !- [J]
Output:Meter:Cumulative,InteriorLights:Electricity:Zone:THERMAL ZONE: P4-3-COMMERCE 1,hourly; !- [J]
Output:Meter,General:InteriorLights:Electricity:Zone:THERMAL ZONE: P4-3-COMMERCE 1,hourly; !- [J]
Output:Meter:Cumulative,General:InteriorLights:Electricity:Zone:THERMAL ZONE: P4-3-COMMERCE 1,hourly; !- [J]
Output:Meter,InteriorEquipment:Electricity,hourly; !- [J]
Output:Meter:Cumulative,InteriorEquipment:Electricity,hourly; !- [J]
Output:Meter,InteriorEquipment:Electricity:Zone:THERMAL ZONE: P1-11-OFFICE 1,hourly; !- [J]
Output:Meter:Cumulative,InteriorEquipment:Electricity:Zone:THERMAL ZONE: P1-11-OFFICE 1,hourly; !- [J]
Output:Meter,InteriorEquipment:Electricity:SpaceType:189.1-2009 - OFFICE - CLOSEDOFFICE - CZ4-8 1,hourly; !- [J]
Output:Meter:Cumulative,InteriorEquipment:Electricity:SpaceType:189.1-2009 - OFFICE - CLOSEDOFFICE - CZ4-8 1,hourly; !- [J]
Output:Meter,General:InteriorEquipment:Electricity,hourly; !- [J]
Output:Meter:Cumulative,General:InteriorEquipment:Electricity,hourly; !- [J]
Output:Meter,General:InteriorEquipment:Electricity:Zone:THERMAL ZONE: P1-11-OFFICE 1,hourly; !- [J]
Output:Meter:Cumulative,General:InteriorEquipment:Electricity:Zone:THERMAL ZONE: P1-11-OFFICE 1,hourly; !- [J]
Output:Meter,General:InteriorEquipment:Electricity:SpaceType:189.1-2009 - OFFICE - CLOSEDOFFICE - CZ4-8 1,hourly; !- [J]
Output:Meter:Cumulative,General:InteriorEquipment:Electricity:SpaceType:189.1-2009 - OFFICE - CLOSEDOFFICE - CZ4-8 1,hourly; !- [J]
Output:Meter,InteriorEquipment:Electricity:Zone:THERMAL ZONE: P1-1-OFFICE 1,hourly; !- [J]
Output:Meter:Cumulative,InteriorEquipment:Electricity:Zone:THERMAL ZONE: P1-1-OFFICE 1,hourly; !- [J]
Output:Meter,General:InteriorEquipment:Electricity:Zone:THERMAL ZONE: P1-1-OFFICE 1,hourly; !- [J]
Output:Meter:Cumulative,General:InteriorEquipment:Electricity:Zone:THERMAL ZONE: P1-1-OFFICE 1,hourly; !- [J]
Output:Meter,InteriorEquipment:Electricity:Zone:THERMAL ZONE: P1-1-OFFICE 2,hourly; !- [J]
Output:Meter:Cumulative,InteriorEquipment:Electricity:Zone:THERMAL ZONE: P1-1-OFFICE 2,hourly; !- [J]
Output:Meter,General:InteriorEquipment:Electricity:Zone:THERMAL ZONE: P1-1-OFFICE 2,hourly; !- [J]
Output:Meter:Cumulative,General:InteriorEquipment:Electricity:Zone:THERMAL ZONE: P1-1-OFFICE 2,hourly; !- [J]
Output:Meter,InteriorEquipment:Electricity:Zone:THERMAL ZONE: P1-11-OFFICE 2,hourly; !- [J]
Output:Meter:Cumulative,InteriorEquipment:Electricity:Zone:THERMAL ZONE: P1-11-OFFICE 2,hourly; !- [J]
Output:Meter,General:InteriorEquipment:Electricity:Zone:THERMAL ZONE: P1-11-OFFICE 2,hourly; !- [J]
Output:Meter:Cumulative,General:InteriorEquipment:Electricity:Zone:THERMAL ZONE: P1-11-OFFICE 2,hourly; !- [J]
Output:Meter,InteriorEquipment:Electricity:Zone:THERMAL ZONE: P1-7-OFFICE 1,hourly; !- [J]
Output:Meter:Cumulative,InteriorEquipment:Electricity:Zone:THERMAL ZONE: P1-7-OFFICE 1,hourly; !- [J]
Output:Meter,General:InteriorEquipment:Electricity:Zone:THERMAL ZONE: P1-7-OFFICE 1,hourly; !- [J]
Output:Meter:Cumulative,General:InteriorEquipment:Electricity:Zone:THERMAL ZONE: P1-7-OFFICE 1,hourly; !- [J]
Output:Meter,InteriorEquipment:Electricity:Zone:THERMAL ZONE: P1-2-RESTROOM 1,hourly; !- [J]
Output:Meter:Cumulative,InteriorEquipment:Electricity:Zone:THERMAL ZONE: P1-2-RESTROOM 1,hourly; !- [J]
Output:Meter,InteriorEquipment:Electricity:SpaceType:189.1-2009 - OFFICE - RESTROOM - CZ4-8,hourly; !- [J]
Output:Meter:Cumulative,InteriorEquipment:Electricity:SpaceType:189.1-2009 - OFFICE - RESTROOM - CZ4-8,hourly; !- [J]
Output:Meter,General:InteriorEquipment:Electricity:Zone:THERMAL ZONE: P1-2-RESTROOM 1,hourly; !- [J]
Output:Meter:Cumulative,General:InteriorEquipment:Electricity:Zone:THERMAL ZONE: P1-2-RESTROOM 1,hourly; !- [J]
Output:Meter,General:InteriorEquipment:Electricity:SpaceType:189.1-2009 - OFFICE - RESTROOM - CZ4-8,hourly; !- [J]
Output:Meter:Cumulative,General:InteriorEquipment:Electricity:SpaceType:189.1-2009 - OFFICE - RESTROOM - CZ4-8,hourly; !- [J]
Output:Meter,InteriorEquipment:Electricity:Zone:THERMAL ZONE: P1-10-RESTROOM 1,hourly; !- [J]
Output:Meter:Cumulative,InteriorEquipment:Electricity:Zone:THERMAL ZONE: P1-10-RESTROOM 1,hourly; !- [J]
Output:Meter,General:InteriorEquipment:Electricity:Zone:THERMAL ZONE: P1-10-RESTROOM 1,hourly; !- [J]
Output:Meter:Cumulative,General:InteriorEquipment:Electricity:Zone:THERMAL ZONE: P1-10-RESTROOM 1,hourly; !- [J]
Output:Meter,InteriorEquipment:Electricity:Zone:THERMAL ZONE: P1-8-RESTROOM 1,hourly; !- [J]
Output:Meter:Cumulative,InteriorEquipment:Electricity:Zone:THERMAL ZONE: P1-8-RESTROOM 1,hourly; !- [J]
Output:Meter,General:InteriorEquipment:Electricity:Zone:THERMAL ZONE: P1-8-RESTROOM 1,hourly; !- [J]
Output:Meter:Cumulative,General:InteriorEquipment:Electricity:Zone:THERMAL ZONE: P1-8-RESTROOM 1,hourly; !- [J]
Output:Meter,InteriorEquipment:Electricity:Zone:THERMAL ZONE: P2-2-RESTROOM 1,hourly; !- [J]
Output:Meter:Cumulative,InteriorEquipment:Electricity:Zone:THERMAL ZONE: P2-2-RESTROOM 1,hourly; !- [J]
Output:Meter,General:InteriorEquipment:Electricity:Zone:THERMAL ZONE: P2-2-RESTROOM 1,hourly; !- [J]
Output:Meter:Cumulative,General:InteriorEquipment:Electricity:Zone:THERMAL ZONE: P2-2-RESTROOM 1,hourly; !- [J]
Output:Meter,InteriorEquipment:Electricity:Zone:THERMAL ZONE: P3-2-RESTROOM 1,hourly; !- [J]
Output:Meter:Cumulative,InteriorEquipment:Electricity:Zone:THERMAL ZONE: P3-2-RESTROOM 1,hourly; !- [J]
Output:Meter,General:InteriorEquipment:Electricity:Zone:THERMAL ZONE: P3-2-RESTROOM 1,hourly; !- [J]
Output:Meter:Cumulative,General:InteriorEquipment:Electricity:Zone:THERMAL ZONE: P3-2-RESTROOM 1,hourly; !- [J]
Output:Meter,InteriorEquipment:Electricity:Zone:THERMAL ZONE: HALL-1-1,hourly; !- [J]
Output:Meter:Cumulative,InteriorEquipment:Electricity:Zone:THERMAL ZONE: HALL-1-1,hourly; !- [J]
Output:Meter,InteriorEquipment:Electricity:SpaceType:189.1-2009 - OFFICE - WHOLEBUILDING - LG OFFICE - CZ4-8,hourly; !- [J]
Output:Meter:Cumulative,InteriorEquipment:Electricity:SpaceType:189.1-2009 - OFFICE - WHOLEBUILDING - LG OFFICE - CZ4-8,hourly; !- [J]
Output:Meter,General:InteriorEquipment:Electricity:Zone:THERMAL ZONE: HALL-1-1,hourly; !- [J]
Output:Meter:Cumulative,General:InteriorEquipment:Electricity:Zone:THERMAL ZONE: HALL-1-1,hourly; !- [J]
Output:Meter,General:InteriorEquipment:Electricity:SpaceType:189.1-2009 - OFFICE - WHOLEBUILDING - LG OFFICE - CZ4-8,hourly; !- [J]
Output:Meter:Cumulative,General:InteriorEquipment:Electricity:SpaceType:189.1-2009 - OFFICE - WHOLEBUILDING - LG OFFICE - CZ4-8,hourly; !- [J]
Output:Meter,InteriorEquipment:Electricity:Zone:THERMAL ZONE: HALL-1-13,hourly; !- [J]
Output:Meter:Cumulative,InteriorEquipment:Electricity:Zone:THERMAL ZONE: HALL-1-13,hourly; !- [J]
Output:Meter,General:InteriorEquipment:Electricity:Zone:THERMAL ZONE: HALL-1-13,hourly; !- [J]
Output:Meter:Cumulative,General:InteriorEquipment:Electricity:Zone:THERMAL ZONE: HALL-1-13,hourly; !- [J]
Output:Meter,InteriorEquipment:Electricity:Zone:THERMAL ZONE: HALL-1-12,hourly; !- [J]
Output:Meter:Cumulative,InteriorEquipment:Electricity:Zone:THERMAL ZONE: HALL-1-12,hourly; !- [J]
Output:Meter,General:InteriorEquipment:Electricity:Zone:THERMAL ZONE: HALL-1-12,hourly; !- [J]
Output:Meter:Cumulative,General:InteriorEquipment:Electricity:Zone:THERMAL ZONE: HALL-1-12,hourly; !- [J]
Output:Meter,InteriorEquipment:Electricity:Zone:THERMAL ZONE: HALL-2-3,hourly; !- [J]
Output:Meter:Cumulative,InteriorEquipment:Electricity:Zone:THERMAL ZONE: HALL-2-3,hourly; !- [J]
Output:Meter,General:InteriorEquipment:Electricity:Zone:THERMAL ZONE: HALL-2-3,hourly; !- [J]
Output:Meter:Cumulative,General:InteriorEquipment:Electricity:Zone:THERMAL ZONE: HALL-2-3,hourly; !- [J]
Output:Meter,InteriorEquipment:Electricity:Zone:THERMAL ZONE: HALL-1-2,hourly; !- [J]
Output:Meter:Cumulative,InteriorEquipment:Electricity:Zone:THERMAL ZONE: HALL-1-2,hourly; !- [J]
Output:Meter,General:InteriorEquipment:Electricity:Zone:THERMAL ZONE: HALL-1-2,hourly; !- [J]
Output:Meter:Cumulative,General:InteriorEquipment:Electricity:Zone:THERMAL ZONE: HALL-1-2,hourly; !- [J]
Output:Meter,InteriorEquipment:Electricity:Zone:THERMAL ZONE: HALL-1-9,hourly; !- [J]
Output:Meter:Cumulative,InteriorEquipment:Electricity:Zone:THERMAL ZONE: HALL-1-9,hourly; !- [J]
Output:Meter,General:InteriorEquipment:Electricity:Zone:THERMAL ZONE: HALL-1-9,hourly; !- [J]
Output:Meter:Cumulative,General:InteriorEquipment:Electricity:Zone:THERMAL ZONE: HALL-1-9,hourly; !- [J]
Output:Meter,InteriorEquipment:Electricity:Zone:THERMAL ZONE: HALL-1-6,hourly; !- [J]
Output:Meter:Cumulative,InteriorEquipment:Electricity:Zone:THERMAL ZONE: HALL-1-6,hourly; !- [J]
Output:Meter,General:InteriorEquipment:Electricity:Zone:THERMAL ZONE: HALL-1-6,hourly; !- [J]
Output:Meter:Cumulative,General:InteriorEquipment:Electricity:Zone:THERMAL ZONE: HALL-1-6,hourly; !- [J]
Output:Meter,InteriorEquipment:Electricity:Zone:THERMAL ZONE: P1-2-BREAKROOM 1,hourly; !- [J]
Output:Meter:Cumulative,InteriorEquipment:Electricity:Zone:THERMAL ZONE: P1-2-BREAKROOM 1,hourly; !- [J]
Output:Meter,General:InteriorEquipment:Electricity:Zone:THERMAL ZONE: P1-2-BREAKROOM 1,hourly; !- [J]
Output:Meter:Cumulative,General:InteriorEquipment:Electricity:Zone:THERMAL ZONE: P1-2-BREAKROOM 1,hourly; !- [J]
Output:Meter,InteriorEquipment:Electricity:Zone:THERMAL ZONE: HALL-1-11,hourly; !- [J]
Output:Meter:Cumulative,InteriorEquipment:Electricity:Zone:THERMAL ZONE: HALL-1-11,hourly; !- [J]
Output:Meter,General:InteriorEquipment:Electricity:Zone:THERMAL ZONE: HALL-1-11,hourly; !- [J]
Output:Meter:Cumulative,General:InteriorEquipment:Electricity:Zone:THERMAL ZONE: HALL-1-11,hourly; !- [J]
Output:Meter,InteriorEquipment:Electricity:Zone:THERMAL ZONE: HALL-1-3,hourly; !- [J]
Output:Meter:Cumulative,InteriorEquipment:Electricity:Zone:THERMAL ZONE: HALL-1-3,hourly; !- [J]
Output:Meter,General:InteriorEquipment:Electricity:Zone:THERMAL ZONE: HALL-1-3,hourly; !- [J]
Output:Meter:Cumulative,General:InteriorEquipment:Electricity:Zone:THERMAL ZONE: HALL-1-3,hourly; !- [J]
Output:Meter,InteriorEquipment:Electricity:Zone:THERMAL ZONE: HALL-1-4,hourly; !- [J]
Output:Meter:Cumulative,InteriorEquipment:Electricity:Zone:THERMAL ZONE: HALL-1-4,hourly; !- [J]
Output:Meter,General:InteriorEquipment:Electricity:Zone:THERMAL ZONE: HALL-1-4,hourly; !- [J]
Output:Meter:Cumulative,General:InteriorEquipment:Electricity:Zone:THERMAL ZONE: HALL-1-4,hourly; !- [J]
Output:Meter,InteriorEquipment:Electricity:Zone:THERMAL ZONE: HALL-2-1,hourly; !- [J]
Output:Meter:Cumulative,InteriorEquipment:Electricity:Zone:THERMAL ZONE: HALL-2-1,hourly; !- [J]
Output:Meter,General:InteriorEquipment:Electricity:Zone:THERMAL ZONE: HALL-2-1,hourly; !- [J]
Output:Meter:Cumulative,General:InteriorEquipment:Electricity:Zone:THERMAL ZONE: HALL-2-1,hourly; !- [J]
Output:Meter,InteriorEquipment:Electricity:Zone:THERMAL ZONE: HALL-1-10,hourly; !- [J]
Output:Meter:Cumulative,InteriorEquipment:Electricity:Zone:THERMAL ZONE: HALL-1-10,hourly; !- [J]
Output:Meter,General:InteriorEquipment:Electricity:Zone:THERMAL ZONE: HALL-1-10,hourly; !- [J]
Output:Meter:Cumulative,General:InteriorEquipment:Electricity:Zone:THERMAL ZONE: HALL-1-10,hourly; !- [J]
Output:Meter,InteriorEquipment:Electricity:Zone:THERMAL ZONE: HALL-1-5,hourly; !- [J]
Output:Meter:Cumulative,InteriorEquipment:Electricity:Zone:THERMAL ZONE: HALL-1-5,hourly; !- [J]
Output:Meter,General:InteriorEquipment:Electricity:Zone:THERMAL ZONE: HALL-1-5,hourly; !- [J]
Output:Meter:Cumulative,General:InteriorEquipment:Electricity:Zone:THERMAL ZONE: HALL-1-5,hourly; !- [J]
Output:Meter,InteriorEquipment:Electricity:Zone:THERMAL ZONE: HALL-1-7,hourly; !- [J]
Output:Meter:Cumulative,InteriorEquipment:Electricity:Zone:THERMAL ZONE: HALL-1-7,hourly; !- [J]
Output:Meter,General:InteriorEquipment:Electricity:Zone:THERMAL ZONE: HALL-1-7,hourly; !- [J]
Output:Meter:Cumulative,General:InteriorEquipment:Electricity:Zone:THERMAL ZONE: HALL-1-7,hourly; !- [J]
Output:Meter,InteriorEquipment:Electricity:Zone:THERMAL ZONE: HALL-1-8,hourly; !- [J]
Output:Meter:Cumulative,InteriorEquipment:Electricity:Zone:THERMAL ZONE: HALL-1-8,hourly; !- [J]
Output:Meter,General:InteriorEquipment:Electricity:Zone:THERMAL ZONE: HALL-1-8,hourly; !- [J]
Output:Meter:Cumulative,General:InteriorEquipment:Electricity:Zone:THERMAL ZONE: HALL-1-8,hourly; !- [J]
Output:Meter,InteriorEquipment:Electricity:Zone:THERMAL ZONE: HALL-4-4,hourly; !- [J]
Output:Meter:Cumulative,InteriorEquipment:Electricity:Zone:THERMAL ZONE: HALL-4-4,hourly; !- [J]
Output:Meter,General:InteriorEquipment:Electricity:Zone:THERMAL ZONE: HALL-4-4,hourly; !- [J]
Output:Meter:Cumulative,General:InteriorEquipment:Electricity:Zone:THERMAL ZONE: HALL-4-4,hourly; !- [J]
Output:Meter,InteriorEquipment:Electricity:Zone:THERMAL ZONE: HALL-4-3,hourly; !- [J]
Output:Meter:Cumulative,InteriorEquipment:Electricity:Zone:THERMAL ZONE: HALL-4-3,hourly; !- [J]
Output:Meter,General:InteriorEquipment:Electricity:Zone:THERMAL ZONE: HALL-4-3,hourly; !- [J]
Output:Meter:Cumulative,General:InteriorEquipment:Electricity:Zone:THERMAL ZONE: HALL-4-3,hourly; !- [J]
Output:Meter,InteriorEquipment:Electricity:Zone:THERMAL ZONE: HALL-4-2,hourly; !- [J]
Output:Meter:Cumulative,InteriorEquipment:Electricity:Zone:THERMAL ZONE: HALL-4-2,hourly; !- [J]
Output:Meter,General:InteriorEquipment:Electricity:Zone:THERMAL ZONE: HALL-4-2,hourly; !- [J]
Output:Meter:Cumulative,General:InteriorEquipment:Electricity:Zone:THERMAL ZONE: HALL-4-2,hourly; !- [J]
Output:Meter,InteriorEquipment:Electricity:Zone:THERMAL ZONE: HALL-4-1,hourly; !- [J]
Output:Meter:Cumulative,InteriorEquipment:Electricity:Zone:THERMAL ZONE: HALL-4-1,hourly; !- [J]
Output:Meter,General:InteriorEquipment:Electricity:Zone:THERMAL ZONE: HALL-4-1,hourly; !- [J]
Output:Meter:Cumulative,General:InteriorEquipment:Electricity:Zone:THERMAL ZONE: HALL-4-1,hourly; !- [J]
Output:Meter,InteriorEquipment:Electricity:Zone:THERMAL ZONE: HALL-2-2,hourly; !- [J]
Output:Meter:Cumulative,InteriorEquipment:Electricity:Zone:THERMAL ZONE: HALL-2-2,hourly; !- [J]
Output:Meter,General:InteriorEquipment:Electricity:Zone:THERMAL ZONE: HALL-2-2,hourly; !- [J]
Output:Meter:Cumulative,General:InteriorEquipment:Electricity:Zone:THERMAL ZONE: HALL-2-2,hourly; !- [J]
Output:Meter,InteriorEquipment:Electricity:Zone:THERMAL ZONE: HALL-3-1,hourly; !- [J]
Output:Meter:Cumulative,InteriorEquipment:Electricity:Zone:THERMAL ZONE: HALL-3-1,hourly; !- [J]
Output:Meter,General:InteriorEquipment:Electricity:Zone:THERMAL ZONE: HALL-3-1,hourly; !- [J]
Output:Meter:Cumulative,General:InteriorEquipment:Electricity:Zone:THERMAL ZONE: HALL-3-1,hourly; !- [J]
Output:Meter,InteriorEquipment:Electricity:Zone:THERMAL ZONE: HALL-3-2,hourly; !- [J]
Output:Meter:Cumulative,InteriorEquipment:Electricity:Zone:THERMAL ZONE: HALL-3-2,hourly; !- [J]
Output:Meter,General:InteriorEquipment:Electricity:Zone:THERMAL ZONE: HALL-3-2,hourly; !- [J]
Output:Meter:Cumulative,General:InteriorEquipment:Electricity:Zone:THERMAL ZONE: HALL-3-2,hourly; !- [J]
Output:Meter,InteriorEquipment:Electricity:Zone:THERMAL ZONE: HALL-3-3,hourly; !- [J]
Output:Meter:Cumulative,InteriorEquipment:Electricity:Zone:THERMAL ZONE: HALL-3-3,hourly; !- [J]
Output:Meter,General:InteriorEquipment:Electricity:Zone:THERMAL ZONE: HALL-3-3,hourly; !- [J]
Output:Meter:Cumulative,General:InteriorEquipment:Electricity:Zone:THERMAL ZONE: HALL-3-3,hourly; !- [J]
Output:Meter,InteriorEquipment:Electricity:Zone:THERMAL ZONE: P1-1-DINING 1,hourly; !- [J]
Output:Meter:Cumulative,InteriorEquipment:Electricity:Zone:THERMAL ZONE: P1-1-DINING 1,hourly; !- [J]
Output:Meter,InteriorEquipment:Electricity:SpaceType:OFFICE DINING,hourly; !- [J]
Output:Meter:Cumulative,InteriorEquipment:Electricity:SpaceType:OFFICE DINING,hourly; !- [J]
Output:Meter,General:InteriorEquipment:Electricity:Zone:THERMAL ZONE: P1-1-DINING 1,hourly; !- [J]
Output:Meter:Cumulative,General:InteriorEquipment:Electricity:Zone:THERMAL ZONE: P1-1-DINING 1,hourly; !- [J]
Output:Meter,General:InteriorEquipment:Electricity:SpaceType:OFFICE DINING,hourly; !- [J]
Output:Meter:Cumulative,General:InteriorEquipment:Electricity:SpaceType:OFFICE DINING,hourly; !- [J]
Output:Meter,InteriorEquipment:Electricity:Zone:THERMAL ZONE: P1-7-DINING 1,hourly; !- [J]
Output:Meter:Cumulative,InteriorEquipment:Electricity:Zone:THERMAL ZONE: P1-7-DINING 1,hourly; !- [J]
Output:Meter,General:InteriorEquipment:Electricity:Zone:THERMAL ZONE: P1-7-DINING 1,hourly; !- [J]
Output:Meter:Cumulative,General:InteriorEquipment:Electricity:Zone:THERMAL ZONE: P1-7-DINING 1,hourly; !- [J]
Output:Meter,InteriorEquipment:Electricity:Zone:THERMAL ZONE: P1-2-DINING 1,hourly; !- [J]
Output:Meter:Cumulative,InteriorEquipment:Electricity:Zone:THERMAL ZONE: P1-2-DINING 1,hourly; !- [J]
Output:Meter,General:InteriorEquipment:Electricity:Zone:THERMAL ZONE: P1-2-DINING 1,hourly; !- [J]
Output:Meter:Cumulative,General:InteriorEquipment:Electricity:Zone:THERMAL ZONE: P1-2-DINING 1,hourly; !- [J]
Output:Meter,InteriorEquipment:Electricity:Zone:THERMAL ZONE: P1-4-DINING 1,hourly; !- [J]
Output:Meter:Cumulative,InteriorEquipment:Electricity:Zone:THERMAL ZONE: P1-4-DINING 1,hourly; !- [J]
Output:Meter,General:InteriorEquipment:Electricity:Zone:THERMAL ZONE: P1-4-DINING 1,hourly; !- [J]
Output:Meter:Cumulative,General:InteriorEquipment:Electricity:Zone:THERMAL ZONE: P1-4-DINING 1,hourly; !- [J]
Output:Meter,InteriorEquipment:Electricity:Zone:THERMAL ZONE: P3-2-DINING 1,hourly; !- [J]
Output:Meter:Cumulative,InteriorEquipment:Electricity:Zone:THERMAL ZONE: P3-2-DINING 1,hourly; !- [J]
Output:Meter,General:InteriorEquipment:Electricity:Zone:THERMAL ZONE: P3-2-DINING 1,hourly; !- [J]
Output:Meter:Cumulative,General:InteriorEquipment:Electricity:Zone:THERMAL ZONE: P3-2-DINING 1,hourly; !- [J]
Output:Meter,InteriorEquipment:Electricity:Zone:THERMAL ZONE: P3-1-DINING 1,hourly; !- [J]
Output:Meter:Cumulative,InteriorEquipment:Electricity:Zone:THERMAL ZONE: P3-1-DINING 1,hourly; !- [J]
Output:Meter,General:InteriorEquipment:Electricity:Zone:THERMAL ZONE: P3-1-DINING 1,hourly; !- [J]
Output:Meter:Cumulative,General:InteriorEquipment:Electricity:Zone:THERMAL ZONE: P3-1-DINING 1,hourly; !- [J]
Output:Meter,InteriorEquipment:Electricity:Zone:THERMAL ZONE: P3-1-COMMERCE 1,hourly; !- [J]
Output:Meter:Cumulative,InteriorEquipment:Electricity:Zone:THERMAL ZONE: P3-1-COMMERCE 1,hourly; !- [J]
Output:Meter,InteriorEquipment:Electricity:SpaceType:RETAIL RETAIL,hourly; !- [J]
Output:Meter:Cumulative,InteriorEquipment:Electricity:SpaceType:RETAIL RETAIL,hourly; !- [J]
Output:Meter,General:InteriorEquipment:Electricity:Zone:THERMAL ZONE: P3-1-COMMERCE 1,hourly; !- [J]
Output:Meter:Cumulative,General:InteriorEquipment:Electricity:Zone:THERMAL ZONE: P3-1-COMMERCE 1,hourly; !- [J]
Output:Meter,General:InteriorEquipment:Electricity:SpaceType:RETAIL RETAIL,hourly; !- [J]
Output:Meter:Cumulative,General:InteriorEquipment:Electricity:SpaceType:RETAIL RETAIL,hourly; !- [J]
Output:Meter,InteriorEquipment:Electricity:Zone:THERMAL ZONE: P2-1-COMMERCE 2,hourly; !- [J]
Output:Meter:Cumulative,InteriorEquipment:Electricity:Zone:THERMAL ZONE: P2-1-COMMERCE 2,hourly; !- [J]
Output:Meter,General:InteriorEquipment:Electricity:Zone:THERMAL ZONE: P2-1-COMMERCE 2,hourly; !- [J]
Output:Meter:Cumulative,General:InteriorEquipment:Electricity:Zone:THERMAL ZONE: P2-1-COMMERCE 2,hourly; !- [J]
Output:Meter,InteriorEquipment:Electricity:Zone:THERMAL ZONE: P1-1-COMMERCE 1,hourly; !- [J]
Output:Meter:Cumulative,InteriorEquipment:Electricity:Zone:THERMAL ZONE: P1-1-COMMERCE 1,hourly; !- [J]
Output:Meter,General:InteriorEquipment:Electricity:Zone:THERMAL ZONE: P1-1-COMMERCE 1,hourly; !- [J]
Output:Meter:Cumulative,General:InteriorEquipment:Electricity:Zone:THERMAL ZONE: P1-1-COMMERCE 1,hourly; !- [J]
Output:Meter,InteriorEquipment:Electricity:Zone:THERMAL ZONE: P1-11-COMMERCE 2,hourly; !- [J]
Output:Meter:Cumulative,InteriorEquipment:Electricity:Zone:THERMAL ZONE: P1-11-COMMERCE 2,hourly; !- [J]
Output:Meter,General:InteriorEquipment:Electricity:Zone:THERMAL ZONE: P1-11-COMMERCE 2,hourly; !- [J]
Output:Meter:Cumulative,General:InteriorEquipment:Electricity:Zone:THERMAL ZONE: P1-11-COMMERCE 2,hourly; !- [J]
Output:Meter,InteriorEquipment:Electricity:Zone:THERMAL ZONE: P4-1-COMMERCE 1,hourly; !- [J]
Output:Meter:Cumulative,InteriorEquipment:Electricity:Zone:THERMAL ZONE: P4-1-COMMERCE 1,hourly; !- [J]
Output:Meter,General:InteriorEquipment:Electricity:Zone:THERMAL ZONE: P4-1-COMMERCE 1,hourly; !- [J]
Output:Meter:Cumulative,General:InteriorEquipment:Electricity:Zone:THERMAL ZONE: P4-1-COMMERCE 1,hourly; !- [J]
Output:Meter,InteriorEquipment:Electricity:Zone:THERMAL ZONE: P1-11-COMMERCE 1,hourly; !- [J]
Output:Meter:Cumulative,InteriorEquipment:Electricity:Zone:THERMAL ZONE: P1-11-COMMERCE 1,hourly; !- [J]
Output:Meter,General:InteriorEquipment:Electricity:Zone:THERMAL ZONE: P1-11-COMMERCE 1,hourly; !- [J]
Output:Meter:Cumulative,General:InteriorEquipment:Electricity:Zone:THERMAL ZONE: P1-11-COMMERCE 1,hourly; !- [J]
Output:Meter,InteriorEquipment:Electricity:Zone:THERMAL ZONE: P1-3-COMMERCE 1,hourly; !- [J]
Output:Meter:Cumulative,InteriorEquipment:Electricity:Zone:THERMAL ZONE: P1-3-COMMERCE 1,hourly; !- [J]
Output:Meter,General:InteriorEquipment:Electricity:Zone:THERMAL ZONE: P1-3-COMMERCE 1,hourly; !- [J]
Output:Meter:Cumulative,General:InteriorEquipment:Electricity:Zone:THERMAL ZONE: P1-3-COMMERCE 1,hourly; !- [J]
Output:Meter,InteriorEquipment:Electricity:Zone:THERMAL ZONE: P2-1-COMMERCE 3,hourly; !- [J]
Output:Meter:Cumulative,InteriorEquipment:Electricity:Zone:THERMAL ZONE: P2-1-COMMERCE 3,hourly; !- [J]
Output:Meter,General:InteriorEquipment:Electricity:Zone:THERMAL ZONE: P2-1-COMMERCE 3,hourly; !- [J]
Output:Meter:Cumulative,General:InteriorEquipment:Electricity:Zone:THERMAL ZONE: P2-1-COMMERCE 3,hourly; !- [J]
Output:Meter,InteriorEquipment:Electricity:Zone:THERMAL ZONE: P1-4-COMMERCE 1,hourly; !- [J]
Output:Meter:Cumulative,InteriorEquipment:Electricity:Zone:THERMAL ZONE: P1-4-COMMERCE 1,hourly; !- [J]
Output:Meter,General:InteriorEquipment:Electricity:Zone:THERMAL ZONE: P1-4-COMMERCE 1,hourly; !- [J]
Output:Meter:Cumulative,General:InteriorEquipment:Electricity:Zone:THERMAL ZONE: P1-4-COMMERCE 1,hourly; !- [J]
Output:Meter,InteriorEquipment:Electricity:Zone:THERMAL ZONE: P4-2-COMMERCE 2,hourly; !- [J]
Output:Meter:Cumulative,InteriorEquipment:Electricity:Zone:THERMAL ZONE: P4-2-COMMERCE 2,hourly; !- [J]
Output:Meter,General:InteriorEquipment:Electricity:Zone:THERMAL ZONE: P4-2-COMMERCE 2,hourly; !- [J]
Output:Meter:Cumulative,General:InteriorEquipment:Electricity:Zone:THERMAL ZONE: P4-2-COMMERCE 2,hourly; !- [J]
Output:Meter,InteriorEquipment:Electricity:Zone:THERMAL ZONE: P1-9-COMMERCE 1,hourly; !- [J]
Output:Meter:Cumulative,InteriorEquipment:Electricity:Zone:THERMAL ZONE: P1-9-COMMERCE 1,hourly; !- [J]
Output:Meter,General:InteriorEquipment:Electricity:Zone:THERMAL ZONE: P1-9-COMMERCE 1,hourly; !- [J]
Output:Meter:Cumulative,General:InteriorEquipment:Electricity:Zone:THERMAL ZONE: P1-9-COMMERCE 1,hourly; !- [J]
Output:Meter,InteriorEquipment:Electricity:Zone:THERMAL ZONE: P4-2-COMMERCE 1,hourly; !- [J]
Output:Meter:Cumulative,InteriorEquipment:Electricity:Zone:THERMAL ZONE: P4-2-COMMERCE 1,hourly; !- [J]
Output:Meter,General:InteriorEquipment:Electricity:Zone:THERMAL ZONE: P4-2-COMMERCE 1,hourly; !- [J]
Output:Meter:Cumulative,General:InteriorEquipment:Electricity:Zone:THERMAL ZONE: P4-2-COMMERCE 1,hourly; !- [J]
Output:Meter,InteriorEquipment:Electricity:Zone:THERMAL ZONE: P1-5-COMMERCE 1,hourly; !- [J]
Output:Meter:Cumulative,InteriorEquipment:Electricity:Zone:THERMAL ZONE: P1-5-COMMERCE 1,hourly; !- [J]
Output:Meter,General:InteriorEquipment:Electricity:Zone:THERMAL ZONE: P1-5-COMMERCE 1,hourly; !- [J]
Output:Meter:Cumulative,General:InteriorEquipment:Electricity:Zone:THERMAL ZONE: P1-5-COMMERCE 1,hourly; !- [J]
Output:Meter,InteriorEquipment:Electricity:Zone:THERMAL ZONE: P1-6-COMMERCE 1,hourly; !- [J]
Output:Meter:Cumulative,InteriorEquipment:Electricity:Zone:THERMAL ZONE: P1-6-COMMERCE 1,hourly; !- [J]
Output:Meter,General:InteriorEquipment:Electricity:Zone:THERMAL ZONE: P1-6-COMMERCE 1,hourly; !- [J]
Output:Meter:Cumulative,General:InteriorEquipment:Electricity:Zone:THERMAL ZONE: P1-6-COMMERCE 1,hourly; !- [J]
Output:Meter,InteriorEquipment:Electricity:Zone:THERMAL ZONE: P4-3-COMMERCE 2,hourly; !- [J]
Output:Meter:Cumulative,InteriorEquipment:Electricity:Zone:THERMAL ZONE: P4-3-COMMERCE 2,hourly; !- [J]
Output:Meter,General:InteriorEquipment:Electricity:Zone:THERMAL ZONE: P4-3-COMMERCE 2,hourly; !- [J]
Output:Meter:Cumulative,General:InteriorEquipment:Electricity:Zone:THERMAL ZONE: P4-3-COMMERCE 2,hourly; !- [J]
Output:Meter,InteriorEquipment:Electricity:Zone:THERMAL ZONE: P4-3-COMMERCE 1,hourly; !- [J]
Output:Meter:Cumulative,InteriorEquipment:Electricity:Zone:THERMAL ZONE: P4-3-COMMERCE 1,hourly; !- [J]
Output:Meter,General:InteriorEquipment:Electricity:Zone:THERMAL ZONE: P4-3-COMMERCE 1,hourly; !- [J]
Output:Meter:Cumulative,General:InteriorEquipment:Electricity:Zone:THERMAL ZONE: P4-3-COMMERCE 1,hourly; !- [J]
Output:Meter,Fans:Electricity,hourly; !- [J]
Output:Meter:Cumulative,Fans:Electricity,hourly; !- [J]
Output:Meter,Fans:Electricity:Zone:THERMAL ZONE: P1-1-COMMERCE 1,hourly; !- [J]
Output:Meter:Cumulative,Fans:Electricity:Zone:THERMAL ZONE: P1-1-COMMERCE 1,hourly; !- [J]
Output:Meter,Ventilation (simple):Fans:Electricity,hourly; !- [J]
Output:Meter:Cumulative,Ventilation (simple):Fans:Electricity,hourly; !- [J]
Output:Meter,Ventilation (simple):Fans:Electricity:Zone:THERMAL ZONE: P1-1-COMMERCE 1,hourly; !- [J]
Output:Meter:Cumulative,Ventilation (simple):Fans:Electricity:Zone:THERMAL ZONE: P1-1-COMMERCE 1,hourly; !- [J]
Output:Meter,Fans:Electricity:Zone:THERMAL ZONE: P1-1-DINING 1,hourly; !- [J]
Output:Meter:Cumulative,Fans:Electricity:Zone:THERMAL ZONE: P1-1-DINING 1,hourly; !- [J]
Output:Meter,Ventilation (simple):Fans:Electricity:Zone:THERMAL ZONE: P1-1-DINING 1,hourly; !- [J]
Output:Meter:Cumulative,Ventilation (simple):Fans:Electricity:Zone:THERMAL ZONE: P1-1-DINING 1,hourly; !- [J]
Output:Meter,Fans:Electricity:Zone:THERMAL ZONE: P1-1-OFFICE 1,hourly; !- [J]
Output:Meter:Cumulative,Fans:Electricity:Zone:THERMAL ZONE: P1-1-OFFICE 1,hourly; !- [J]
Output:Meter,Ventilation (simple):Fans:Electricity:Zone:THERMAL ZONE: P1-1-OFFICE 1,hourly; !- [J]
Output:Meter:Cumulative,Ventilation (simple):Fans:Electricity:Zone:THERMAL ZONE: P1-1-OFFICE 1,hourly; !- [J]
Output:Meter,Fans:Electricity:Zone:THERMAL ZONE: P1-1-OFFICE 2,hourly; !- [J]
Output:Meter:Cumulative,Fans:Electricity:Zone:THERMAL ZONE: P1-1-OFFICE 2,hourly; !- [J]
Output:Meter,Ventilation (simple):Fans:Electricity:Zone:THERMAL ZONE: P1-1-OFFICE 2,hourly; !- [J]
Output:Meter:Cumulative,Ventilation (simple):Fans:Electricity:Zone:THERMAL ZONE: P1-1-OFFICE 2,hourly; !- [J]
Output:Meter,Fans:Electricity:Zone:THERMAL ZONE: P1-2-BREAKROOM 1,hourly; !- [J]
Output:Meter:Cumulative,Fans:Electricity:Zone:THERMAL ZONE: P1-2-BREAKROOM 1,hourly; !- [J]
Output:Meter,Ventilation (simple):Fans:Electricity:Zone:THERMAL ZONE: P1-2-BREAKROOM 1,hourly; !- [J]
Output:Meter:Cumulative,Ventilation (simple):Fans:Electricity:Zone:THERMAL ZONE: P1-2-BREAKROOM 1,hourly; !- [J]
Output:Meter,Fans:Electricity:Zone:THERMAL ZONE: P1-2-DINING 1,hourly; !- [J]
Output:Meter:Cumulative,Fans:Electricity:Zone:THERMAL ZONE: P1-2-DINING 1,hourly; !- [J]
Output:Meter,Ventilation (simple):Fans:Electricity:Zone:THERMAL ZONE: P1-2-DINING 1,hourly; !- [J]
Output:Meter:Cumulative,Ventilation (simple):Fans:Electricity:Zone:THERMAL ZONE: P1-2-DINING 1,hourly; !- [J]
Output:Meter,Fans:Electricity:Zone:THERMAL ZONE: P1-2-RESTROOM 1,hourly; !- [J]
Output:Meter:Cumulative,Fans:Electricity:Zone:THERMAL ZONE: P1-2-RESTROOM 1,hourly; !- [J]
Output:Meter,Ventilation (simple):Fans:Electricity:Zone:THERMAL ZONE: P1-2-RESTROOM 1,hourly; !- [J]
Output:Meter:Cumulative,Ventilation (simple):Fans:Electricity:Zone:THERMAL ZONE: P1-2-RESTROOM 1,hourly; !- [J]
Output:Meter,Fans:Electricity:Zone:THERMAL ZONE: P1-3-COMMERCE 1,hourly; !- [J]
Output:Meter:Cumulative,Fans:Electricity:Zone:THERMAL ZONE: P1-3-COMMERCE 1,hourly; !- [J]
Output:Meter,Ventilation (simple):Fans:Electricity:Zone:THERMAL ZONE: P1-3-COMMERCE 1,hourly; !- [J]
Output:Meter:Cumulative,Ventilation (simple):Fans:Electricity:Zone:THERMAL ZONE: P1-3-COMMERCE 1,hourly; !- [J]
Output:Meter,Fans:Electricity:Zone:THERMAL ZONE: P1-4-COMMERCE 1,hourly; !- [J]
Output:Meter:Cumulative,Fans:Electricity:Zone:THERMAL ZONE: P1-4-COMMERCE 1,hourly; !- [J]
Output:Meter,Ventilation (simple):Fans:Electricity:Zone:THERMAL ZONE: P1-4-COMMERCE 1,hourly; !- [J]
Output:Meter:Cumulative,Ventilation (simple):Fans:Electricity:Zone:THERMAL ZONE: P1-4-COMMERCE 1,hourly; !- [J]
Output:Meter,Fans:Electricity:Zone:THERMAL ZONE: P1-4-DINING 1,hourly; !- [J]
Output:Meter:Cumulative,Fans:Electricity:Zone:THERMAL ZONE: P1-4-DINING 1,hourly; !- [J]
Output:Meter,Ventilation (simple):Fans:Electricity:Zone:THERMAL ZONE: P1-4-DINING 1,hourly; !- [J]
Output:Meter:Cumulative,Ventilation (simple):Fans:Electricity:Zone:THERMAL ZONE: P1-4-DINING 1,hourly; !- [J]
Output:Meter,Fans:Electricity:Zone:THERMAL ZONE: P1-5-COMMERCE 1,hourly; !- [J]
Output:Meter:Cumulative,Fans:Electricity:Zone:THERMAL ZONE: P1-5-COMMERCE 1,hourly; !- [J]
Output:Meter,Ventilation (simple):Fans:Electricity:Zone:THERMAL ZONE: P1-5-COMMERCE 1,hourly; !- [J]
Output:Meter:Cumulative,Ventilation (simple):Fans:Electricity:Zone:THERMAL ZONE: P1-5-COMMERCE 1,hourly; !- [J]
Output:Meter,Fans:Electricity:Zone:THERMAL ZONE: P1-6-COMMERCE 1,hourly; !- [J]
Output:Meter:Cumulative,Fans:Electricity:Zone:THERMAL ZONE: P1-6-COMMERCE 1,hourly; !- [J]
Output:Meter,Ventilation (simple):Fans:Electricity:Zone:THERMAL ZONE: P1-6-COMMERCE 1,hourly; !- [J]
Output:Meter:Cumulative,Ventilation (simple):Fans:Electricity:Zone:THERMAL ZONE: P1-6-COMMERCE 1,hourly; !- [J]
Output:Meter,Fans:Electricity:Zone:THERMAL ZONE: P1-7-DINING 1,hourly; !- [J]
Output:Meter:Cumulative,Fans:Electricity:Zone:THERMAL ZONE: P1-7-DINING 1,hourly; !- [J]
Output:Meter,Ventilation (simple):Fans:Electricity:Zone:THERMAL ZONE: P1-7-DINING 1,hourly; !- [J]
Output:Meter:Cumulative,Ventilation (simple):Fans:Electricity:Zone:THERMAL ZONE: P1-7-DINING 1,hourly; !- [J]
Output:Meter,Fans:Electricity:Zone:THERMAL ZONE: P1-7-OFFICE 1,hourly; !- [J]
Output:Meter:Cumulative,Fans:Electricity:Zone:THERMAL ZONE: P1-7-OFFICE 1,hourly; !- [J]
Output:Meter,Ventilation (simple):Fans:Electricity:Zone:THERMAL ZONE: P1-7-OFFICE 1,hourly; !- [J]
Output:Meter:Cumulative,Ventilation (simple):Fans:Electricity:Zone:THERMAL ZONE: P1-7-OFFICE 1,hourly; !- [J]
Output:Meter,Fans:Electricity:Zone:THERMAL ZONE: P1-8-RESTROOM 1,hourly; !- [J]
Output:Meter:Cumulative,Fans:Electricity:Zone:THERMAL ZONE: P1-8-RESTROOM 1,hourly; !- [J]
Output:Meter,Ventilation (simple):Fans:Electricity:Zone:THERMAL ZONE: P1-8-RESTROOM 1,hourly; !- [J]
Output:Meter:Cumulative,Ventilation (simple):Fans:Electricity:Zone:THERMAL ZONE: P1-8-RESTROOM 1,hourly; !- [J]
Output:Meter,Fans:Electricity:Zone:THERMAL ZONE: P1-9-COMMERCE 1,hourly; !- [J]
Output:Meter:Cumulative,Fans:Electricity:Zone:THERMAL ZONE: P1-9-COMMERCE 1,hourly; !- [J]
Output:Meter,Ventilation (simple):Fans:Electricity:Zone:THERMAL ZONE: P1-9-COMMERCE 1,hourly; !- [J]
Output:Meter:Cumulative,Ventilation (simple):Fans:Electricity:Zone:THERMAL ZONE: P1-9-COMMERCE 1,hourly; !- [J]
Output:Meter,Fans:Electricity:Zone:THERMAL ZONE: P1-10-RESTROOM 1,hourly; !- [J]
Output:Meter:Cumulative,Fans:Electricity:Zone:THERMAL ZONE: P1-10-RESTROOM 1,hourly; !- [J]
Output:Meter,Ventilation (simple):Fans:Electricity:Zone:THERMAL ZONE: P1-10-RESTROOM 1,hourly; !- [J]
Output:Meter:Cumulative,Ventilation (simple):Fans:Electricity:Zone:THERMAL ZONE: P1-10-RESTROOM 1,hourly; !- [J]
Output:Meter,Fans:Electricity:Zone:THERMAL ZONE: P1-11-COMMERCE 1,hourly; !- [J]
Output:Meter:Cumulative,Fans:Electricity:Zone:THERMAL ZONE: P1-11-COMMERCE 1,hourly; !- [J]
Output:Meter,Ventilation (simple):Fans:Electricity:Zone:THERMAL ZONE: P1-11-COMMERCE 1,hourly; !- [J]
Output:Meter:Cumulative,Ventilation (simple):Fans:Electricity:Zone:THERMAL ZONE: P1-11-COMMERCE 1,hourly; !- [J]
Output:Meter,Fans:Electricity:Zone:THERMAL ZONE: P1-11-COMMERCE 2,hourly; !- [J]
Output:Meter:Cumulative,Fans:Electricity:Zone:THERMAL ZONE: P1-11-COMMERCE 2,hourly; !- [J]
Output:Meter,Ventilation (simple):Fans:Electricity:Zone:THERMAL ZONE: P1-11-COMMERCE 2,hourly; !- [J]
Output:Meter:Cumulative,Ventilation (simple):Fans:Electricity:Zone:THERMAL ZONE: P1-11-COMMERCE 2,hourly; !- [J]
Output:Meter,Fans:Electricity:Zone:THERMAL ZONE: P1-11-OFFICE 1,hourly; !- [J]
Output:Meter:Cumulative,Fans:Electricity:Zone:THERMAL ZONE: P1-11-OFFICE 1,hourly; !- [J]
Output:Meter,Ventilation (simple):Fans:Electricity:Zone:THERMAL ZONE: P1-11-OFFICE 1,hourly; !- [J]
Output:Meter:Cumulative,Ventilation (simple):Fans:Electricity:Zone:THERMAL ZONE: P1-11-OFFICE 1,hourly; !- [J]
Output:Meter,Fans:Electricity:Zone:THERMAL ZONE: P1-11-OFFICE 2,hourly; !- [J]
Output:Meter:Cumulative,Fans:Electricity:Zone:THERMAL ZONE: P1-11-OFFICE 2,hourly; !- [J]
Output:Meter,Ventilation (simple):Fans:Electricity:Zone:THERMAL ZONE: P1-11-OFFICE 2,hourly; !- [J]
Output:Meter:Cumulative,Ventilation (simple):Fans:Electricity:Zone:THERMAL ZONE: P1-11-OFFICE 2,hourly; !- [J]
Output:Meter,Fans:Electricity:Zone:THERMAL ZONE: P2-1-COMMERCE 2,hourly; !- [J]
Output:Meter:Cumulative,Fans:Electricity:Zone:THERMAL ZONE: P2-1-COMMERCE 2,hourly; !- [J]
Output:Meter,Ventilation (simple):Fans:Electricity:Zone:THERMAL ZONE: P2-1-COMMERCE 2,hourly; !- [J]
Output:Meter:Cumulative,Ventilation (simple):Fans:Electricity:Zone:THERMAL ZONE: P2-1-COMMERCE 2,hourly; !- [J]
Output:Meter,Fans:Electricity:Zone:THERMAL ZONE: P2-1-COMMERCE 3,hourly; !- [J]
Output:Meter:Cumulative,Fans:Electricity:Zone:THERMAL ZONE: P2-1-COMMERCE 3,hourly; !- [J]
Output:Meter,Ventilation (simple):Fans:Electricity:Zone:THERMAL ZONE: P2-1-COMMERCE 3,hourly; !- [J]
Output:Meter:Cumulative,Ventilation (simple):Fans:Electricity:Zone:THERMAL ZONE: P2-1-COMMERCE 3,hourly; !- [J]
Output:Meter,Fans:Electricity:Zone:THERMAL ZONE: P2-2-RESTROOM 1,hourly; !- [J]
Output:Meter:Cumulative,Fans:Electricity:Zone:THERMAL ZONE: P2-2-RESTROOM 1,hourly; !- [J]
Output:Meter,Ventilation (simple):Fans:Electricity:Zone:THERMAL ZONE: P2-2-RESTROOM 1,hourly; !- [J]
Output:Meter:Cumulative,Ventilation (simple):Fans:Electricity:Zone:THERMAL ZONE: P2-2-RESTROOM 1,hourly; !- [J]
Output:Meter,Fans:Electricity:Zone:THERMAL ZONE: P3-1-COMMERCE 1,hourly; !- [J]
Output:Meter:Cumulative,Fans:Electricity:Zone:THERMAL ZONE: P3-1-COMMERCE 1,hourly; !- [J]
Output:Meter,Ventilation (simple):Fans:Electricity:Zone:THERMAL ZONE: P3-1-COMMERCE 1,hourly; !- [J]
Output:Meter:Cumulative,Ventilation (simple):Fans:Electricity:Zone:THERMAL ZONE: P3-1-COMMERCE 1,hourly; !- [J]
Output:Meter,Fans:Electricity:Zone:THERMAL ZONE: P3-1-DINING 1,hourly; !- [J]
Output:Meter:Cumulative,Fans:Electricity:Zone:THERMAL ZONE: P3-1-DINING 1,hourly; !- [J]
Output:Meter,Ventilation (simple):Fans:Electricity:Zone:THERMAL ZONE: P3-1-DINING 1,hourly; !- [J]
Output:Meter:Cumulative,Ventilation (simple):Fans:Electricity:Zone:THERMAL ZONE: P3-1-DINING 1,hourly; !- [J]
Output:Meter,Fans:Electricity:Zone:THERMAL ZONE: P3-2-DINING 1,hourly; !- [J]
Output:Meter:Cumulative,Fans:Electricity:Zone:THERMAL ZONE: P3-2-DINING 1,hourly; !- [J]
Output:Meter,Ventilation (simple):Fans:Electricity:Zone:THERMAL ZONE: P3-2-DINING 1,hourly; !- [J]
Output:Meter:Cumulative,Ventilation (simple):Fans:Electricity:Zone:THERMAL ZONE: P3-2-DINING 1,hourly; !- [J]
Output:Meter,Fans:Electricity:Zone:THERMAL ZONE: P3-2-RESTROOM 1,hourly; !- [J]
Output:Meter:Cumulative,Fans:Electricity:Zone:THERMAL ZONE: P3-2-RESTROOM 1,hourly; !- [J]
Output:Meter,Ventilation (simple):Fans:Electricity:Zone:THERMAL ZONE: P3-2-RESTROOM 1,hourly; !- [J]
Output:Meter:Cumulative,Ventilation (simple):Fans:Electricity:Zone:THERMAL ZONE: P3-2-RESTROOM 1,hourly; !- [J]
Output:Meter,Fans:Electricity:Zone:THERMAL ZONE: P4-1-COMMERCE 1,hourly; !- [J]
Output:Meter:Cumulative,Fans:Electricity:Zone:THERMAL ZONE: P4-1-COMMERCE 1,hourly; !- [J]
Output:Meter,Ventilation (simple):Fans:Electricity:Zone:THERMAL ZONE: P4-1-COMMERCE 1,hourly; !- [J]
Output:Meter:Cumulative,Ventilation (simple):Fans:Electricity:Zone:THERMAL ZONE: P4-1-COMMERCE 1,hourly; !- [J]
Output:Meter,Fans:Electricity:Zone:THERMAL ZONE: P4-2-COMMERCE 1,hourly; !- [J]
Output:Meter:Cumulative,Fans:Electricity:Zone:THERMAL ZONE: P4-2-COMMERCE 1,hourly; !- [J]
Output:Meter,Ventilation (simple):Fans:Electricity:Zone:THERMAL ZONE: P4-2-COMMERCE 1,hourly; !- [J]
Output:Meter:Cumulative,Ventilation (simple):Fans:Electricity:Zone:THERMAL ZONE: P4-2-COMMERCE 1,hourly; !- [J]
Output:Meter,Fans:Electricity:Zone:THERMAL ZONE: P4-2-COMMERCE 2,hourly; !- [J]
Output:Meter:Cumulative,Fans:Electricity:Zone:THERMAL ZONE: P4-2-COMMERCE 2,hourly; !- [J]
Output:Meter,Ventilation (simple):Fans:Electricity:Zone:THERMAL ZONE: P4-2-COMMERCE 2,hourly; !- [J]
Output:Meter:Cumulative,Ventilation (simple):Fans:Electricity:Zone:THERMAL ZONE: P4-2-COMMERCE 2,hourly; !- [J]
Output:Meter,Fans:Electricity:Zone:THERMAL ZONE: P4-3-COMMERCE 1,hourly; !- [J]
Output:Meter:Cumulative,Fans:Electricity:Zone:THERMAL ZONE: P4-3-COMMERCE 1,hourly; !- [J]
Output:Meter,Ventilation (simple):Fans:Electricity:Zone:THERMAL ZONE: P4-3-COMMERCE 1,hourly; !- [J]
Output:Meter:Cumulative,Ventilation (simple):Fans:Electricity:Zone:THERMAL ZONE: P4-3-COMMERCE 1,hourly; !- [J]
Output:Meter,Fans:Electricity:Zone:THERMAL ZONE: P4-3-COMMERCE 2,hourly; !- [J]
Output:Meter:Cumulative,Fans:Electricity:Zone:THERMAL ZONE: P4-3-COMMERCE 2,hourly; !- [J]
Output:Meter,Ventilation (simple):Fans:Electricity:Zone:THERMAL ZONE: P4-3-COMMERCE 2,hourly; !- [J]
Output:Meter:Cumulative,Ventilation (simple):Fans:Electricity:Zone:THERMAL ZONE: P4-3-COMMERCE 2,hourly; !- [J]
Output:Meter,Fans:Electricity:Zone:THERMAL ZONE: HALL-1-1,hourly; !- [J]
Output:Meter:Cumulative,Fans:Electricity:Zone:THERMAL ZONE: HALL-1-1,hourly; !- [J]
Output:Meter,Ventilation (simple):Fans:Electricity:Zone:THERMAL ZONE: HALL-1-1,hourly; !- [J]
Output:Meter:Cumulative,Ventilation (simple):Fans:Electricity:Zone:THERMAL ZONE: HALL-1-1,hourly; !- [J]
Output:Meter,Fans:Electricity:Zone:THERMAL ZONE: HALL-1-2,hourly; !- [J]
Output:Meter:Cumulative,Fans:Electricity:Zone:THERMAL ZONE: HALL-1-2,hourly; !- [J]
Output:Meter,Ventilation (simple):Fans:Electricity:Zone:THERMAL ZONE: HALL-1-2,hourly; !- [J]
Output:Meter:Cumulative,Ventilation (simple):Fans:Electricity:Zone:THERMAL ZONE: HALL-1-2,hourly; !- [J]
Output:Meter,Fans:Electricity:Zone:THERMAL ZONE: HALL-1-3,hourly; !- [J]
Output:Meter:Cumulative,Fans:Electricity:Zone:THERMAL ZONE: HALL-1-3,hourly; !- [J]
Output:Meter,Ventilation (simple):Fans:Electricity:Zone:THERMAL ZONE: HALL-1-3,hourly; !- [J]
Output:Meter:Cumulative,Ventilation (simple):Fans:Electricity:Zone:THERMAL ZONE: HALL-1-3,hourly; !- [J]
Output:Meter,Fans:Electricity:Zone:THERMAL ZONE: HALL-1-4,hourly; !- [J]
Output:Meter:Cumulative,Fans:Electricity:Zone:THERMAL ZONE: HALL-1-4,hourly; !- [J]
Output:Meter,Ventilation (simple):Fans:Electricity:Zone:THERMAL ZONE: HALL-1-4,hourly; !- [J]
Output:Meter:Cumulative,Ventilation (simple):Fans:Electricity:Zone:THERMAL ZONE: HALL-1-4,hourly; !- [J]
Output:Meter,Fans:Electricity:Zone:THERMAL ZONE: HALL-1-5,hourly; !- [J]
Output:Meter:Cumulative,Fans:Electricity:Zone:THERMAL ZONE: HALL-1-5,hourly; !- [J]
Output:Meter,Ventilation (simple):Fans:Electricity:Zone:THERMAL ZONE: HALL-1-5,hourly; !- [J]
Output:Meter:Cumulative,Ventilation (simple):Fans:Electricity:Zone:THERMAL ZONE: HALL-1-5,hourly; !- [J]
Output:Meter,Fans:Electricity:Zone:THERMAL ZONE: HALL-1-6,hourly; !- [J]
Output:Meter:Cumulative,Fans:Electricity:Zone:THERMAL ZONE: HALL-1-6,hourly; !- [J]
Output:Meter,Ventilation (simple):Fans:Electricity:Zone:THERMAL ZONE: HALL-1-6,hourly; !- [J]
Output:Meter:Cumulative,Ventilation (simple):Fans:Electricity:Zone:THERMAL ZONE: HALL-1-6,hourly; !- [J]
Output:Meter,Fans:Electricity:Zone:THERMAL ZONE: HALL-1-7,hourly; !- [J]
Output:Meter:Cumulative,Fans:Electricity:Zone:THERMAL ZONE: HALL-1-7,hourly; !- [J]
Output:Meter,Ventilation (simple):Fans:Electricity:Zone:THERMAL ZONE: HALL-1-7,hourly; !- [J]
Output:Meter:Cumulative,Ventilation (simple):Fans:Electricity:Zone:THERMAL ZONE: HALL-1-7,hourly; !- [J]
Output:Meter,Fans:Electricity:Zone:THERMAL ZONE: HALL-1-8,hourly; !- [J]
Output:Meter:Cumulative,Fans:Electricity:Zone:THERMAL ZONE: HALL-1-8,hourly; !- [J]
Output:Meter,Ventilation (simple):Fans:Electricity:Zone:THERMAL ZONE: HALL-1-8,hourly; !- [J]
Output:Meter:Cumulative,Ventilation (simple):Fans:Electricity:Zone:THERMAL ZONE: HALL-1-8,hourly; !- [J]
Output:Meter,Fans:Electricity:Zone:THERMAL ZONE: HALL-1-9,hourly; !- [J]
Output:Meter:Cumulative,Fans:Electricity:Zone:THERMAL ZONE: HALL-1-9,hourly; !- [J]
Output:Meter,Ventilation (simple):Fans:Electricity:Zone:THERMAL ZONE: HALL-1-9,hourly; !- [J]
Output:Meter:Cumulative,Ventilation (simple):Fans:Electricity:Zone:THERMAL ZONE: HALL-1-9,hourly; !- [J]
Output:Meter,Fans:Electricity:Zone:THERMAL ZONE: HALL-1-10,hourly; !- [J]
Output:Meter:Cumulative,Fans:Electricity:Zone:THERMAL ZONE: HALL-1-10,hourly; !- [J]
Output:Meter,Ventilation (simple):Fans:Electricity:Zone:THERMAL ZONE: HALL-1-10,hourly; !- [J]
Output:Meter:Cumulative,Ventilation (simple):Fans:Electricity:Zone:THERMAL ZONE: HALL-1-10,hourly; !- [J]
Output:Meter,Fans:Electricity:Zone:THERMAL ZONE: HALL-1-11,hourly; !- [J]
Output:Meter:Cumulative,Fans:Electricity:Zone:THERMAL ZONE: HALL-1-11,hourly; !- [J]
Output:Meter,Ventilation (simple):Fans:Electricity:Zone:THERMAL ZONE: HALL-1-11,hourly; !- [J]
Output:Meter:Cumulative,Ventilation (simple):Fans:Electricity:Zone:THERMAL ZONE: HALL-1-11,hourly; !- [J]
Output:Meter,Fans:Electricity:Zone:THERMAL ZONE: HALL-1-12,hourly; !- [J]
Output:Meter:Cumulative,Fans:Electricity:Zone:THERMAL ZONE: HALL-1-12,hourly; !- [J]
Output:Meter,Ventilation (simple):Fans:Electricity:Zone:THERMAL ZONE: HALL-1-12,hourly; !- [J]
Output:Meter:Cumulative,Ventilation (simple):Fans:Electricity:Zone:THERMAL ZONE: HALL-1-12,hourly; !- [J]
Output:Meter,Fans:Electricity:Zone:THERMAL ZONE: HALL-1-13,hourly; !- [J]
Output:Meter:Cumulative,Fans:Electricity:Zone:THERMAL ZONE: HALL-1-13,hourly; !- [J]
Output:Meter,Ventilation (simple):Fans:Electricity:Zone:THERMAL ZONE: HALL-1-13,hourly; !- [J]
Output:Meter:Cumulative,Ventilation (simple):Fans:Electricity:Zone:THERMAL ZONE: HALL-1-13,hourly; !- [J]
Output:Meter,Fans:Electricity:Zone:THERMAL ZONE: HALL-2-1,hourly; !- [J]
Output:Meter:Cumulative,Fans:Electricity:Zone:THERMAL ZONE: HALL-2-1,hourly; !- [J]
Output:Meter,Ventilation (simple):Fans:Electricity:Zone:THERMAL ZONE: HALL-2-1,hourly; !- [J]
Output:Meter:Cumulative,Ventilation (simple):Fans:Electricity:Zone:THERMAL ZONE: HALL-2-1,hourly; !- [J]
Output:Meter,Fans:Electricity:Zone:THERMAL ZONE: HALL-2-2,hourly; !- [J]
Output:Meter:Cumulative,Fans:Electricity:Zone:THERMAL ZONE: HALL-2-2,hourly; !- [J]
Output:Meter,Ventilation (simple):Fans:Electricity:Zone:THERMAL ZONE: HALL-2-2,hourly; !- [J]
Output:Meter:Cumulative,Ventilation (simple):Fans:Electricity:Zone:THERMAL ZONE: HALL-2-2,hourly; !- [J]
Output:Meter,Fans:Electricity:Zone:THERMAL ZONE: HALL-2-3,hourly; !- [J]
Output:Meter:Cumulative,Fans:Electricity:Zone:THERMAL ZONE: HALL-2-3,hourly; !- [J]
Output:Meter,Ventilation (simple):Fans:Electricity:Zone:THERMAL ZONE: HALL-2-3,hourly; !- [J]
Output:Meter:Cumulative,Ventilation (simple):Fans:Electricity:Zone:THERMAL ZONE: HALL-2-3,hourly; !- [J]
Output:Meter,Fans:Electricity:Zone:THERMAL ZONE: HALL-3-1,hourly; !- [J]
Output:Meter:Cumulative,Fans:Electricity:Zone:THERMAL ZONE: HALL-3-1,hourly; !- [J]
Output:Meter,Ventilation (simple):Fans:Electricity:Zone:THERMAL ZONE: HALL-3-1,hourly; !- [J]
Output:Meter:Cumulative,Ventilation (simple):Fans:Electricity:Zone:THERMAL ZONE: HALL-3-1,hourly; !- [J]
Output:Meter,Fans:Electricity:Zone:THERMAL ZONE: HALL-3-2,hourly; !- [J]
Output:Meter:Cumulative,Fans:Electricity:Zone:THERMAL ZONE: HALL-3-2,hourly; !- [J]
Output:Meter,Ventilation (simple):Fans:Electricity:Zone:THERMAL ZONE: HALL-3-2,hourly; !- [J]
Output:Meter:Cumulative,Ventilation (simple):Fans:Electricity:Zone:THERMAL ZONE: HALL-3-2,hourly; !- [J]
Output:Meter,Fans:Electricity:Zone:THERMAL ZONE: HALL-3-3,hourly; !- [J]
Output:Meter:Cumulative,Fans:Electricity:Zone:THERMAL ZONE: HALL-3-3,hourly; !- [J]
Output:Meter,Ventilation (simple):Fans:Electricity:Zone:THERMAL ZONE: HALL-3-3,hourly; !- [J]
Output:Meter:Cumulative,Ventilation (simple):Fans:Electricity:Zone:THERMAL ZONE: HALL-3-3,hourly; !- [J]
Output:Meter,Fans:Electricity:Zone:THERMAL ZONE: HALL-4-1,hourly; !- [J]
Output:Meter:Cumulative,Fans:Electricity:Zone:THERMAL ZONE: HALL-4-1,hourly; !- [J]
Output:Meter,Ventilation (simple):Fans:Electricity:Zone:THERMAL ZONE: HALL-4-1,hourly; !- [J]
Output:Meter:Cumulative,Ventilation (simple):Fans:Electricity:Zone:THERMAL ZONE: HALL-4-1,hourly; !- [J]
Output:Meter,Fans:Electricity:Zone:THERMAL ZONE: HALL-4-2,hourly; !- [J]
Output:Meter:Cumulative,Fans:Electricity:Zone:THERMAL ZONE: HALL-4-2,hourly; !- [J]
Output:Meter,Ventilation (simple):Fans:Electricity:Zone:THERMAL ZONE: HALL-4-2,hourly; !- [J]
Output:Meter:Cumulative,Ventilation (simple):Fans:Electricity:Zone:THERMAL ZONE: HALL-4-2,hourly; !- [J]
Output:Meter,Fans:Electricity:Zone:THERMAL ZONE: HALL-4-3,hourly; !- [J]
Output:Meter:Cumulative,Fans:Electricity:Zone:THERMAL ZONE: HALL-4-3,hourly; !- [J]
Output:Meter,Ventilation (simple):Fans:Electricity:Zone:THERMAL ZONE: HALL-4-3,hourly; !- [J]
Output:Meter:Cumulative,Ventilation (simple):Fans:Electricity:Zone:THERMAL ZONE: HALL-4-3,hourly; !- [J]
Output:Meter,Fans:Electricity:Zone:THERMAL ZONE: HALL-4-4,hourly; !- [J]
Output:Meter:Cumulative,Fans:Electricity:Zone:THERMAL ZONE: HALL-4-4,hourly; !- [J]
Output:Meter,Ventilation (simple):Fans:Electricity:Zone:THERMAL ZONE: HALL-4-4,hourly; !- [J]
Output:Meter:Cumulative,Ventilation (simple):Fans:Electricity:Zone:THERMAL ZONE: HALL-4-4,hourly; !- [J]
Output:Meter,EnergyTransfer:Facility,hourly; !- [J]
Output:Meter:Cumulative,EnergyTransfer:Facility,hourly; !- [J]
Output:Meter,EnergyTransfer:Building,hourly; !- [J]
Output:Meter:Cumulative,EnergyTransfer:Building,hourly; !- [J]
[...]
Output:Meter:Cumulative,EnergyTransfer:Zone:THERMAL ZONE: HALL-1-4,hourly; !- [J]
Output:Meter,Heating:EnergyTransfer:Zone:THERMAL ZONE: HALL-1-4,hourly; !- [J]
Output:Meter:Cumulative,Heating:EnergyTransfer:Zone:THERMAL ZONE: HALL-1-4,hourly; !- [J]
Output:Meter,General:Heating:EnergyTransfer:Zone:THERMAL ZONE: HALL-1-4,hourly; !- [J]
Output:Meter:Cumulative,General:Heating:EnergyTransfer:Zone:THERMAL ZONE: HALL-1-4,hourly; !- [J]
Output:Meter,Cooling:EnergyTransfer:Zone:THERMAL ZONE: HALL-1-4,hourly; !- [J]
Output:Meter:Cumulative,Cooling:EnergyTransfer:Zone:THERMAL ZONE: HALL-1-4,hourly; !- [J]
Output:Meter,General:Cooling:EnergyTransfer:Zone:THERMAL ZONE: HALL-1-4,hourly; !- [J]
Output:Meter:Cumulative,General:Cooling:EnergyTransfer:Zone:THERMAL ZONE: HALL-1-4,hourly; !- [J]
Output:Meter,EnergyTransfer:Zone:THERMAL ZONE: HALL-1-5,hourly; !- [J]
Output:Meter:Cumulative,EnergyTransfer:Zone:THERMAL ZONE: HALL-1-5,hourly; !- [J]
Output:Meter,Heating:EnergyTransfer:Zone:THERMAL ZONE: HALL-1-5,hourly; !- [J]
Output:Meter:Cumulative,Heating:EnergyTransfer:Zone:THERMAL ZONE: HALL-1-5,hourly; !- [J]
Output:Meter,General:Heating:EnergyTransfer:Zone:THERMAL ZONE: HALL-1-5,hourly; !- [J]
Output:Meter:Cumulative,General:Heating:EnergyTransfer:Zone:THERMAL ZONE: HALL-1-5,hourly; !- [J]
Output:Meter,Cooling:EnergyTransfer:Zone:THERMAL ZONE: HALL-1-5,hourly; !- [J]
Output:Meter:Cumulative,Cooling:EnergyTransfer:Zone:THERMAL ZONE: HALL-1-5,hourly; !- [J]
Output:Meter,General:Cooling:EnergyTransfer:Zone:THERMAL ZONE: HALL-1-5,hourly; !- [J]
Output:Meter:Cumulative,General:Cooling:EnergyTransfer:Zone:THERMAL ZONE: HALL-1-5,hourly; !- [J]
Output:Meter,EnergyTransfer:Zone:THERMAL ZONE: HALL-1-6,hourly; !- [J]
Output:Meter:Cumulative,EnergyTransfer:Zone:THERMAL ZONE: HALL-1-6,hourly; !- [J]
Output:Meter,Heating:EnergyTransfer:Zone:THERMAL ZONE: HALL-1-6,hourly; !- [J]
Output:Meter:Cumulative,Heating:EnergyTransfer:Zone:THERMAL ZONE: HALL-1-6,hourly; !- [J]
Output:Meter,General:Heating:EnergyTransfer:Zone:THERMAL ZONE: HALL-1-6,hourly; !- [J]
Output:Meter:Cumulative,General:Heating:EnergyTransfer:Zone:THERMAL ZONE: HALL-1-6,hourly; !- [J]
Output:Meter,Cooling:EnergyTransfer:Zone:THERMAL ZONE: HALL-1-6,hourly; !- [J]
Output:Meter:Cumulative,Cooling:EnergyTransfer:Zone:THERMAL ZONE: HALL-1-6,hourly; !- [J]
Output:Meter,General:Cooling:EnergyTransfer:Zone:THERMAL ZONE: HALL-1-6,hourly; !- [J]
Output:Meter:Cumulative,General:Cooling:EnergyTransfer:Zone:THERMAL ZONE: HALL-1-6,hourly; !- [J]
Output:Meter,EnergyTransfer:Zone:THERMAL ZONE: HALL-1-7,hourly; !- [J]
Output:Meter:Cumulative,EnergyTransfer:Zone:THERMAL ZONE: HALL-1-7,hourly; !- [J]
Output:Meter,Heating:EnergyTransfer:Zone:THERMAL ZONE: HALL-1-7,hourly; !- [J]
Output:Meter:Cumulative,Heating:EnergyTransfer:Zone:THERMAL ZONE: HALL-1-7,hourly; !- [J]
Output:Meter,General:Heating:EnergyTransfer:Zone:THERMAL ZONE: HALL-1-7,hourly; !- [J]
Output:Meter:Cumulative,General:Heating:EnergyTransfer:Zone:THERMAL ZONE: HALL-1-7,hourly; !- [J]
Output:Meter,Cooling:EnergyTransfer:Zone:THERMAL ZONE: HALL-1-7,hourly; !- [J]
Output:Meter:Cumulative,Cooling:EnergyTransfer:Zone:THERMAL ZONE: HALL-1-7,hourly; !- [J]
Output:Meter,General:Cooling:EnergyTransfer:Zone:THERMAL ZONE: HALL-1-7,hourly; !- [J]
Output:Meter:Cumulative,General:Cooling:EnergyTransfer:Zone:THERMAL ZONE: HALL-1-7,hourly; !- [J]
Output:Meter,EnergyTransfer:Zone:THERMAL ZONE: HALL-1-8,hourly; !- [J]
Output:Meter:Cumulative,EnergyTransfer:Zone:THERMAL ZONE: HALL-1-8,hourly; !- [J]
Output:Meter,Heating:EnergyTransfer:Zone:THERMAL ZONE: HALL-1-8,hourly; !- [J]
Output:Meter:Cumulative,Heating:EnergyTransfer:Zone:THERMAL ZONE: HALL-1-8,hourly; !- [J]
Output:Meter,General:Heating:EnergyTransfer:Zone:THERMAL ZONE: HALL-1-8,hourly; !- [J]
Output:Meter:Cumulative,General:Heating:EnergyTransfer:Zone:THERMAL ZONE: HALL-1-8,hourly; !- [J]
Output:Meter,Cooling:EnergyTransfer:Zone:THERMAL ZONE: HALL-1-8,hourly; !- [J]
Output:Meter:Cumulative,Cooling:EnergyTransfer:Zone:THERMAL ZONE: HALL-1-8,hourly; !- [J]
Output:Meter,General:Cooling:EnergyTransfer:Zone:THERMAL ZONE: HALL-1-8,hourly; !- [J]
Output:Meter:Cumulative,General:Cooling:EnergyTransfer:Zone:THERMAL ZONE: HALL-1-8,hourly; !- [J]
Output:Meter,EnergyTransfer:Zone:THERMAL ZONE: HALL-1-9,hourly; !- [J]
Output:Meter:Cumulative,EnergyTransfer:Zone:THERMAL ZONE: HALL-1-9,hourly; !- [J]
Output:Meter,Heating:EnergyTransfer:Zone:THERMAL ZONE: HALL-1-9,hourly; !- [J]
Output:Meter:Cumulative,Heating:EnergyTransfer:Zone:THERMAL ZONE: HALL-1-9,hourly; !- [J]
Output:Meter,General:Heating:EnergyTransfer:Zone:THERMAL ZONE: HALL-1-9,hourly; !- [J]
Output:Meter:Cumulative,General:Heating:EnergyTransfer:Zone:THERMAL ZONE: HALL-1-9,hourly; !- [J]
Output:Meter,Cooling:EnergyTransfer:Zone:THERMAL ZONE: HALL-1-9,hourly; !- [J]
Output:Meter:Cumulative,Cooling:EnergyTransfer:Zone:THERMAL ZONE: HALL-1-9,hourly; !- [J]
Output:Meter,General:Cooling:EnergyTransfer:Zone:THERMAL ZONE: HALL-1-9,hourly; !- [J]
Output:Meter:Cumulative,General:Cooling:EnergyTransfer:Zone:THERMAL ZONE: HALL-1-9,hourly; !- [J]
Output:Meter,EnergyTransfer:Zone:THERMAL ZONE: HALL-1-10,hourly; !- [J]
Output:Meter:Cumulative,EnergyTransfer:Zone:THERMAL ZONE: HALL-1-10,hourly; !- [J]
Output:Meter,Heating:EnergyTransfer:Zone:THERMAL ZONE: HALL-1-10,hourly; !- [J]
Output:Meter:Cumulative,Heating:EnergyTransfer:Zone:THERMAL ZONE: HALL-1-10,hourly; !- [J]
Output:Meter,General:Heating:EnergyTransfer:Zone:THERMAL ZONE: HALL-1-10,hourly; !- [J]
Output:Meter:Cumulative,General:Heating:EnergyTransfer:Zone:THERMAL ZONE: HALL-1-10,hourly; !- [J]
Output:Meter,Cooling:EnergyTransfer:Zone:THERMAL ZONE: HALL-1-10,hourly; !- [J]
Output:Meter:Cumulative,Cooling:EnergyTransfer:Zone:THERMAL ZONE: HALL-1-10,hourly; !- [J]
Output:Meter,General:Cooling:EnergyTransfer:Zone:THERMAL ZONE: HALL-1-10,hourly; !- [J]
Output:Meter:Cumulative,General:Cooling:EnergyTransfer:Zone:THERMAL ZONE: HALL-1-10,hourly; !- [J]
Output:Meter,EnergyTransfer:Zone:THERMAL ZONE: HALL-1-11,hourly; !- [J]
Output:Meter:Cumulative,EnergyTransfer:Zone:THERMAL ZONE: HALL-1-11,hourly; !- [J]
Output:Meter,Heating:EnergyTransfer:Zone:THERMAL ZONE: HALL-1-11,hourly; !- [J]
Output:Meter:Cumulative,Heating:EnergyTransfer:Zone:THERMAL ZONE: HALL-1-11,hourly; !- [J]
Output:Meter,General:Heating:EnergyTransfer:Zone:THERMAL ZONE: HALL-1-11,hourly; !- [J]
Output:Meter:Cumulative,General:Heating:EnergyTransfer:Zone:THERMAL ZONE: HALL-1-11,hourly; !- [J]
Output:Meter,Cooling:EnergyTransfer:Zone:THERMAL ZONE: HALL-1-11,hourly; !- [J]
Output:Meter:Cumulative,Cooling:EnergyTransfer:Zone:THERMAL ZONE: HALL-1-11,hourly; !- [J]
Output:Meter,General:Cooling:EnergyTransfer:Zone:THERMAL ZONE: HALL-1-11,hourly; !- [J]
Output:Meter:Cumulative,General:Cooling:EnergyTransfer:Zone:THERMAL ZONE: HALL-1-11,hourly; !- [J]
Output:Meter,EnergyTransfer:Zone:THERMAL ZONE: HALL-1-12,hourly; !- [J]
Output:Meter:Cumulative,EnergyTransfer:Zone:THERMAL ZONE: HALL-1-12,hourly; !- [J]
Output:Meter,Heating:EnergyTransfer:Zone:THERMAL ZONE: HALL-1-12,hourly; !- [J]
Output:Meter:Cumulative,Heating:EnergyTransfer:Zone:THERMAL ZONE: HALL-1-12,hourly; !- [J]
Output:Meter,General:Heating:EnergyTransfer:Zone:THERMAL ZONE: HALL-1-12,hourly; !- [J]
Output:Meter:Cumulative,General:Heating:EnergyTransfer:Zone:THERMAL ZONE: HALL-1-12,hourly; !- [J]
Output:Meter,Cooling:EnergyTransfer:Zone:THERMAL ZONE: HALL-1-12,hourly; !- [J]
Output:Meter:Cumulative,Cooling:EnergyTransfer:Zone:THERMAL ZONE: HALL-1-12,hourly; !- [J]
Output:Meter,General:Cooling:EnergyTransfer:Zone:THERMAL ZONE: HALL-1-12,hourly; !- [J]
Output:Meter:Cumulative,General:Cooling:EnergyTransfer:Zone:THERMAL ZONE: HALL-1-12,hourly; !- [J]
Output:Meter,EnergyTransfer:Zone:THERMAL ZONE: HALL-1-13,hourly; !- [J]
Output:Meter:Cumulative,EnergyTransfer:Zone:THERMAL ZONE: HALL-1-13,hourly; !- [J]
Output:Meter,Heating:EnergyTransfer:Zone:THERMAL ZONE: HALL-1-13,hourly; !- [J]
Output:Meter:Cumulative,Heating:EnergyTransfer:Zone:THERMAL ZONE: HALL-1-13,hourly; !- [J]
Output:Meter,General:Heating:EnergyTransfer:Zone:THERMAL ZONE: HALL-1-13,hourly; !- [J]
Output:Meter:Cumulative,General:Heating:EnergyTransfer:Zone:THERMAL ZONE: HALL-1-13,hourly; !- [J]
Output:Meter,Cooling:EnergyTransfer:Zone:THERMAL ZONE: HALL-1-13,hourly; !- [J]
Output:Meter:Cumulative,Cooling:EnergyTransfer:Zone:THERMAL ZONE: HALL-1-13,hourly; !- [J]
Output:Meter,General:Cooling:EnergyTransfer:Zone:THERMAL ZONE: HALL-1-13,hourly; !- [J]
Output:Meter:Cumulative,General:Cooling:EnergyTransfer:Zone:THERMAL ZONE: HALL-1-13,hourly; !- [J]
Output:Meter,EnergyTransfer:Zone:THERMAL ZONE: HALL-2-1,hourly; !- [J]
Output:Meter:Cumulative,EnergyTransfer:Zone:THERMAL ZONE: HALL-2-1,hourly; !- [J]
Output:Meter,Heating:EnergyTransfer:Zone:THERMAL ZONE: HALL-2-1,hourly; !- [J]
Output:Meter:Cumulative,Heating:EnergyTransfer:Zone:THERMAL ZONE: HALL-2-1,hourly; !- [J]
Output:Meter,General:Heating:EnergyTransfer:Zone:THERMAL ZONE: HALL-2-1,hourly; !- [J]
Output:Meter:Cumulative,General:Heating:EnergyTransfer:Zone:THERMAL ZONE: HALL-2-1,hourly; !- [J]
Output:Meter,Cooling:EnergyTransfer:Zone:THERMAL ZONE: HALL-2-1,hourly; !- [J]
Output:Meter:Cumulative,Cooling:EnergyTransfer:Zone:THERMAL ZONE: HALL-2-1,hourly; !- [J]
Output:Meter,General:Cooling:EnergyTransfer:Zone:THERMAL ZONE: HALL-2-1,hourly; !- [J]
Output:Meter:Cumulative,General:Cooling:EnergyTransfer:Zone:THERMAL ZONE: HALL-2-1,hourly; !- [J]
Output:Meter,EnergyTransfer:Zone:THERMAL ZONE: HALL-2-2,hourly; !- [J]
Output:Meter:Cumulative,EnergyTransfer:Zone:THERMAL ZONE: HALL-2-2,hourly; !- [J]
Output:Meter,Heating:EnergyTransfer:Zone:THERMAL ZONE: HALL-2-2,hourly; !- [J]
Output:Meter:Cumulative,Heating:EnergyTransfer:Zone:THERMAL ZONE: HALL-2-2,hourly; !- [J]
Output:Meter,General:Heating:EnergyTransfer:Zone:THERMAL ZONE: HALL-2-2,hourly; !- [J]
Output:Meter:Cumulative,General:Heating:EnergyTransfer:Zone:THERMAL ZONE: HALL-2-2,hourly; !- [J]
Output:Meter,Cooling:EnergyTransfer:Zone:THERMAL ZONE: HALL-2-2,hourly; !- [J]
Output:Meter:Cumulative,Cooling:EnergyTransfer:Zone:THERMAL ZONE: HALL-2-2,hourly; !- [J]
Output:Meter,General:Cooling:EnergyTransfer:Zone:THERMAL ZONE: HALL-2-2,hourly; !- [J]
Output:Meter:Cumulative,General:Cooling:EnergyTransfer:Zone:THERMAL ZONE: HALL-2-2,hourly; !- [J]
Output:Meter,EnergyTransfer:Zone:THERMAL ZONE: HALL-2-3,hourly; !- [J]
Output:Meter:Cumulative,EnergyTransfer:Zone:THERMAL ZONE: HALL-2-3,hourly; !- [J]
Output:Meter,Heating:EnergyTransfer:Zone:THERMAL ZONE: HALL-2-3,hourly; !- [J]
Output:Meter:Cumulative,Heating:EnergyTransfer:Zone:THERMAL ZONE: HALL-2-3,hourly; !- [J]
Output:Meter,General:Heating:EnergyTransfer:Zone:THERMAL ZONE: HALL-2-3,hourly; !- [J]
Output:Meter:Cumulative,General:Heating:EnergyTransfer:Zone:THERMAL ZONE: HALL-2-3,hourly; !- [J]
Output:Meter,Cooling:EnergyTransfer:Zone:THERMAL ZONE: HALL-2-3,hourly; !- [J]
Output:Meter:Cumulative,Cooling:EnergyTransfer:Zone:THERMAL ZONE: HALL-2-3,hourly; !- [J]
Output:Meter,General:Cooling:EnergyTransfer:Zone:THERMAL ZONE: HALL-2-3,hourly; !- [J]
Output:Meter:Cumulative,General:Cooling:EnergyTransfer:Zone:THERMAL ZONE: HALL-2-3,hourly; !- [J]
Output:Meter,EnergyTransfer:Zone:THERMAL ZONE: HALL-3-1,hourly; !- [J]
Output:Meter:Cumulative,EnergyTransfer:Zone:THERMAL ZONE: HALL-3-1,hourly; !- [J]
Output:Meter,Heating:EnergyTransfer:Zone:THERMAL ZONE: HALL-3-1,hourly; !- [J]
Output:Meter:Cumulative,Heating:EnergyTransfer:Zone:THERMAL ZONE: HALL-3-1,hourly; !- [J]
Output:Meter,General:Heating:EnergyTransfer:Zone:THERMAL ZONE: HALL-3-1,hourly; !- [J]
Output:Meter:Cumulative,General:Heating:EnergyTransfer:Zone:THERMAL ZONE: HALL-3-1,hourly; !- [J]
Output:Meter,Cooling:EnergyTransfer:Zone:THERMAL ZONE: HALL-3-1,hourly; !- [J]
Output:Meter:Cumulative,Cooling:EnergyTransfer:Zone:THERMAL ZONE: HALL-3-1,hourly; !- [J]
Output:Meter,General:Cooling:EnergyTransfer:Zone:THERMAL ZONE: HALL-3-1,hourly; !- [J]
Output:Meter:Cumulative,General:Cooling:EnergyTransfer:Zone:THERMAL ZONE: HALL-3-1,hourly; !- [J]
Output:Meter,EnergyTransfer:Zone:THERMAL ZONE: HALL-3-2,hourly; !- [J]
Output:Meter:Cumulative,EnergyTransfer:Zone:THERMAL ZONE: HALL-3-2,hourly; !- [J]
Output:Meter,Heating:EnergyTransfer:Zone:THERMAL ZONE: HALL-3-2,hourly; !- [J]
Output:Meter:Cumulative,Heating:EnergyTransfer:Zone:THERMAL ZONE: HALL-3-2,hourly; !- [J]
Output:Meter,General:Heating:EnergyTransfer:Zone:THERMAL ZONE: HALL-3-2,hourly; !- [J]
Output:Meter:Cumulative,General:Heating:EnergyTransfer:Zone:THERMAL ZONE: HALL-3-2,hourly; !- [J]
Output:Meter,Cooling:EnergyTransfer:Zone:THERMAL ZONE: HALL-3-2,hourly; !- [J]
Output:Meter:Cumulative,Cooling:EnergyTransfer:Zone:THERMAL ZONE: HALL-3-2,hourly; !- [J]
Output:Meter,General:Cooling:EnergyTransfer:Zone:THERMAL ZONE: HALL-3-2,hourly; !- [J]
Output:Meter:Cumulative,General:Cooling:EnergyTransfer:Zone:THERMAL ZONE: HALL-3-2,hourly; !- [J]
Output:Meter,EnergyTransfer:Zone:THERMAL ZONE: HALL-3-3,hourly; !- [J]
Output:Meter:Cumulative,EnergyTransfer:Zone:THERMAL ZONE: HALL-3-3,hourly; !- [J]
Output:Meter,Heating:EnergyTransfer:Zone:THERMAL ZONE: HALL-3-3,hourly; !- [J]
Output:Meter:Cumulative,Heating:EnergyTransfer:Zone:THERMAL ZONE: HALL-3-3,hourly; !- [J]
Output:Meter,General:Heating:EnergyTransfer:Zone:THERMAL ZONE: HALL-3-3,hourly; !- [J]
Output:Meter:Cumulative,General:Heating:EnergyTransfer:Zone:THERMAL ZONE: HALL-3-3,hourly; !- [J]
Output:Meter,Cooling:EnergyTransfer:Zone:THERMAL ZONE: HALL-3-3,hourly; !- [J]
Output:Meter:Cumulative,Cooling:EnergyTransfer:Zone:THERMAL ZONE: HALL-3-3,hourly; !- [J]
Output:Meter,General:Cooling:EnergyTransfer:Zone:THERMAL ZONE: HALL-3-3,hourly; !- [J]
Output:Meter:Cumulative,General:Cooling:EnergyTransfer:Zone:THERMAL ZONE: HALL-3-3,hourly; !- [J]
Output:Meter,EnergyTransfer:Zone:THERMAL ZONE: HALL-4-1,hourly; !- [J]
Output:Meter:Cumulative,EnergyTransfer:Zone:THERMAL ZONE: HALL-4-1,hourly; !- [J]
Output:Meter,Heating:EnergyTransfer:Zone:THERMAL ZONE: HALL-4-1,hourly; !- [J]
Output:Meter:Cumulative,Heating:EnergyTransfer:Zone:THERMAL ZONE: HALL-4-1,hourly; !- [J]
Output:Meter,General:Heating:EnergyTransfer:Zone:THERMAL ZONE: HALL-4-1,hourly; !- [J]
Output:Meter:Cumulative,General:Heating:EnergyTransfer:Zone:THERMAL ZONE: HALL-4-1,hourly; !- [J]
Output:Meter,Cooling:EnergyTransfer:Zone:THERMAL ZONE: HALL-4-1,hourly; !- [J]
Output:Meter:Cumulative,Cooling:EnergyTransfer:Zone:THERMAL ZONE: HALL-4-1,hourly; !- [J]
Output:Meter,General:Cooling:EnergyTransfer:Zone:THERMAL ZONE: HALL-4-1,hourly; !- [J]
Output:Meter:Cumulative,General:Cooling:EnergyTransfer:Zone:THERMAL ZONE: HALL-4-1,hourly; !- [J]
Output:Meter,EnergyTransfer:Zone:THERMAL ZONE: HALL-4-2,hourly; !- [J]
Output:Meter:Cumulative,EnergyTransfer:Zone:THERMAL ZONE: HALL-4-2,hourly; !- [J]
Output:Meter,Heating:EnergyTransfer:Zone:THERMAL ZONE: HALL-4-2,hourly; !- [J]
Output:Meter:Cumulative,Heating:EnergyTransfer:Zone:THERMAL ZONE: HALL-4-2,hourly; !- [J]
Output:Meter,General:Heating:EnergyTransfer:Zone:THERMAL ZONE: HALL-4-2,hourly; !- [J]
Output:Meter:Cumulative,General:Heating:EnergyTransfer:Zone:THERMAL ZONE: HALL-4-2,hourly; !- [J]
Output:Meter,Cooling:EnergyTransfer:Zone:THERMAL ZONE: HALL-4-2,hourly; !- [J]
Output:Meter:Cumulative,Cooling:EnergyTransfer:Zone:THERMAL ZONE: HALL-4-2,hourly; !- [J]
Output:Meter,General:Cooling:EnergyTransfer:Zone:THERMAL ZONE: HALL-4-2,hourly; !- [J]
Output:Meter:Cumulative,General:Cooling:EnergyTransfer:Zone:THERMAL ZONE: HALL-4-2,hourly; !- [J]
Output:Meter,EnergyTransfer:Zone:THERMAL ZONE: HALL-4-3,hourly; !- [J]
Output:Meter:Cumulative,EnergyTransfer:Zone:THERMAL ZONE: HALL-4-3,hourly; !- [J]
Output:Meter,Heating:EnergyTransfer:Zone:THERMAL ZONE: HALL-4-3,hourly; !- [J]
Output:Meter:Cumulative,Heating:EnergyTransfer:Zone:THERMAL ZONE: HALL-4-3,hourly; !- [J]
Output:Meter,General:Heating:EnergyTransfer:Zone:THERMAL ZONE: HALL-4-3,hourly; !- [J]
Output:Meter:Cumulative,General:Heating:EnergyTransfer:Zone:THERMAL ZONE: HALL-4-3,hourly; !- [J]
Output:Meter,Cooling:EnergyTransfer:Zone:THERMAL ZONE: HALL-4-3,hourly; !- [J]
Output:Meter:Cumulative,Cooling:EnergyTransfer:Zone:THERMAL ZONE: HALL-4-3,hourly; !- [J]
Output:Meter,General:Cooling:EnergyTransfer:Zone:THERMAL ZONE: HALL-4-3,hourly; !- [J]
Output:Meter:Cumulative,General:Cooling:EnergyTransfer:Zone:THERMAL ZONE: HALL-4-3,hourly; !- [J]
Output:Meter,EnergyTransfer:Zone:THERMAL ZONE: HALL-4-4,hourly; !- [J]
Output:Meter:Cumulative,EnergyTransfer:Zone:THERMAL ZONE: HALL-4-4,hourly; !- [J]
Output:Meter,Heating:EnergyTransfer:Zone:THERMAL ZONE: HALL-4-4,hourly; !- [J]
Output:Meter:Cumulative,Heating:EnergyTransfer:Zone:THERMAL ZONE: HALL-4-4,hourly; !- [J]
Output:Meter,General:Heating:EnergyTransfer:Zone:THERMAL ZONE: HALL-4-4,hourly; !- [J]
Output:Meter:Cumulative,General:Heating:EnergyTransfer:Zone:THERMAL ZONE: HALL-4-4,hourly; !- [J]
Output:Meter,Cooling:EnergyTransfer:Zone:THERMAL ZONE: HALL-4-4,hourly; !- [J]
Output:Meter:Cumulative,Cooling:EnergyTransfer:Zone:THERMAL ZONE: HALL-4-4,hourly; !- [J]
Output:Meter,General:Cooling:EnergyTransfer:Zone:THERMAL ZONE: HALL-4-4,hourly; !- [J]
Output:Meter:Cumulative,General:Cooling:EnergyTransfer:Zone:THERMAL ZONE: HALL-4-4,hourly; !- [J]
Output:Meter,ElectricityPurchased:Facility,hourly; !- [J]
Output:Meter:Cumulative,ElectricityPurchased:Facility,hourly; !- [J]
Output:Meter,ElectricityPurchased:Plant,hourly; !- [J]
Output:Meter:Cumulative,ElectricityPurchased:Plant,hourly; !- [J]
Output:Meter,Cogeneration:ElectricityPurchased,hourly; !- [J]
Output:Meter:Cumulative,Cogeneration:ElectricityPurchased,hourly; !- [J]
Output:Meter,General:Cogeneration:ElectricityPurchased,hourly; !- [J]
Output:Meter:Cumulative,General:Cogeneration:ElectricityPurchased,hourly; !- [J]
Output:Meter,ElectricitySurplusSold:Facility,hourly; !- [J]
Output:Meter:Cumulative,ElectricitySurplusSold:Facility,hourly; !- [J]
Output:Meter,ElectricitySurplusSold:Plant,hourly; !- [J]
Output:Meter:Cumulative,ElectricitySurplusSold:Plant,hourly; !- [J]
Output:Meter,Cogeneration:ElectricitySurplusSold,hourly; !- [J]
Output:Meter:Cumulative,Cogeneration:ElectricitySurplusSold,hourly; !- [J]
Output:Meter,General:Cogeneration:ElectricitySurplusSold,hourly; !- [J]
Output:Meter:Cumulative,General:Cogeneration:ElectricitySurplusSold,hourly; !- [J]
Output:Meter,ElectricityNet:Facility,hourly; !- [J]
Output:Meter:Cumulative,ElectricityNet:Facility,hourly; !- [J]
Output:Meter,ElectricityNet:Plant,hourly; !- [J]
Output:Meter:Cumulative,ElectricityNet:Plant,hourly; !- [J]
Output:Meter,Cogeneration:ElectricityNet,hourly; !- [J]
Output:Meter:Cumulative,Cogeneration:ElectricityNet,hourly; !- [J]
Output:Meter,General:Cogeneration:ElectricityNet,hourly; !- [J]
Output:Meter:Cumulative,General:Cogeneration:ElectricityNet,hourly; !- [J]
Output:Meter,DistrictHeating:Facility,hourly; !- [J]
Output:Meter:Cumulative,DistrictHeating:Facility,hourly; !- [J]
Output:Meter,DistrictHeating:HVAC,hourly; !- [J]
Output:Meter:Cumulative,DistrictHeating:HVAC,hourly; !- [J]
Output:Meter,Heating:DistrictHeating,hourly; !- [J]
Output:Meter:Cumulative,Heating:DistrictHeating,hourly; !- [J]
Output:Meter,General:Heating:DistrictHeating,hourly; !- [J]
Output:Meter:Cumulative,General:Heating:DistrictHeating,hourly; !- [J]
Output:Meter,DistrictCooling:Facility,hourly; !- [J]
Output:Meter:Cumulative,DistrictCooling:Facility,hourly; !- [J]
Output:Meter,DistrictCooling:HVAC,hourly; !- [J]
Output:Meter:Cumulative,DistrictCooling:HVAC,hourly; !- [J]
Output:Meter,Cooling:DistrictCooling,hourly; !- [J]
Output:Meter:Cumulative,Cooling:DistrictCooling,hourly; !- [J]
Output:Meter,General:Cooling:DistrictCooling,hourly; !- [J]
Output:Meter:Cumulative,General:Cooling:DistrictCooling,hourly; !- [J]
Output:Meter,Carbon Equivalent:Facility,hourly; !- [kg]
Output:Meter:Cumulative,Carbon Equivalent:Facility,hourly; !- [kg]
Output:Meter,CarbonEquivalentEmissions:Carbon Equivalent,hourly; !- [kg]
Output:Meter:Cumulative,CarbonEquivalentEmissions:Carbon Equivalent,hourly; !- [kg]
