Program Version,EnergyPlus, Version 23.1.0-87ed9199d4, YMD=2026.05.09 11:13
! <Version>, Version ID
 Version, 23.1
! <Timesteps per Hour>, #TimeSteps, Minutes per TimeStep {minutes}
 Timesteps per Hour,  6, 10
! <System Convergence Limits>, Minimum System TimeStep {minutes}, Max HVAC Iterations, Minimum Plant Iterations, Maximum Plant Iterations
 System Convergence Limits, 1, 20, 2, 8
! <Simulation Control>, Do Zone Sizing, Do System Sizing, Do Plant Sizing, Do Design Days, Do Weather Simulation, Do HVAC Sizing Simulation
 Simulation Control, Yes, No, No, No, Yes, No
! <Performance Precision Tradeoffs>, Use Coil Direct Simulation, Zone Radiant Exchange Algorithm, Override Mode, Number of Timestep In Hour, Force Euler Method, Minimum Number of Warmup Days, Force Suppress All Begin Environment Resets, Minimum System Timestep, MaxZoneTempDiff, MaxAllowedDelTemp
 Performance Precision Tradeoffs, No, ScriptF, Normal, 6, No, 1, No, 1.0, 0.300, 2.0000E-003
! <Output Reporting Tolerances>, Tolerance for Time Heating Setpoint Not Met, Tolerance for Zone Cooling Setpoint Not Met Time
 Output Reporting Tolerances, 0.200, 0.200, 
! <Site:GroundTemperature:BuildingSurface>,Jan{C},Feb{C},Mar{C},Apr{C},May{C},Jun{C},Jul{C},Aug{C},Sep{C},Oct{C},Nov{C},Dec{C}
 Site:GroundTemperature:BuildingSurface,  18.00,  18.00,  18.00,  18.00,  18.00,  18.00,  18.00,  18.00,  18.00,  18.00,  18.00,  18.00
! <Site:GroundTemperature:FCfactorMethod>,Jan{C},Feb{C},Mar{C},Apr{C},May{C},Jun{C},Jul{C},Aug{C},Sep{C},Oct{C},Nov{C},Dec{C}
 Site:GroundTemperature:FCfactorMethod,   0.69,  -0.49,   1.61,   4.90,  13.51,  20.16,  24.64,  26.01,  23.68,  18.52,  11.63,   5.23
! <Site:GroundTemperature:Shallow>,Jan{C},Feb{C},Mar{C},Apr{C},May{C},Jun{C},Jul{C},Aug{C},Sep{C},Oct{C},Nov{C},Dec{C}
 Site:GroundTemperature:Shallow,  13.00,  13.00,  13.00,  13.00,  13.00,  13.00,  13.00,  13.00,  13.00,  13.00,  13.00,  13.00
! <Site:GroundTemperature:Deep>,Jan{C},Feb{C},Mar{C},Apr{C},May{C},Jun{C},Jul{C},Aug{C},Sep{C},Oct{C},Nov{C},Dec{C}
 Site:GroundTemperature:Deep,  16.00,  16.00,  16.00,  16.00,  16.00,  16.00,  16.00,  16.00,  16.00,  16.00,  16.00,  16.00
! <Site:GroundReflectance>,Jan{dimensionless},Feb{dimensionless},Mar{dimensionless},Apr{dimensionless},May{dimensionless},Jun{dimensionless},Jul{dimensionless},Aug{dimensionless},Sep{dimensionless},Oct{dimensionless},Nov{dimensionless},Dec{dimensionless}
 Site:GroundReflectance,  0.20,  0.20,  0.20,  0.20,  0.20,  0.20,  0.20,  0.20,  0.20,  0.20,  0.20,  0.20
! <Site:GroundReflectance:SnowModifier>, Normal, Daylighting {dimensionless}
 Site:GroundReflectance:SnowModifier,   1.000,   1.000
! <Site:GroundReflectance:Snow>,Jan{dimensionless},Feb{dimensionless},Mar{dimensionless},Apr{dimensionless},May{dimensionless},Jun{dimensionless},Jul{dimensionless},Aug{dimensionless},Sep{dimensionless},Oct{dimensionless},Nov{dimensionless},Dec{dimensionless}
 Site:GroundReflectance:Snow,  0.20,  0.20,  0.20,  0.20,  0.20,  0.20,  0.20,  0.20,  0.20,  0.20,  0.20,  0.20
! <Site:GroundReflectance:Snow:Daylighting>,Jan{dimensionless},Feb{dimensionless},Mar{dimensionless},Apr{dimensionless},May{dimensionless},Jun{dimensionless},Jul{dimensionless},Aug{dimensionless},Sep{dimensionless},Oct{dimensionless},Nov{dimensionless},Dec{dimensionless}
 Site:GroundReflectance:Snow:Daylighting,  0.20,  0.20,  0.20,  0.20,  0.20,  0.20,  0.20,  0.20,  0.20,  0.20,  0.20,  0.20
! <Environment:Weather Station>,Wind Sensor Height Above Ground {m},Wind Speed Profile Exponent {},Wind Speed Profile Boundary Layer Thickness {m},Air Temperature Sensor Height Above Ground {m},Wind Speed Modifier Coefficient-Internal,Temperature Modifier Coefficient-Internal
Environment:Weather Station,10.000,0.140,270.000,1.500,1.586,9.750E-003
! <Site:Location>, Location Name, Latitude {N+/S- Deg}, Longitude {E+/W- Deg},  Time Zone Number {GMT+/-}, Elevation {m},  Standard Pressure at Elevation {Pa}, Standard RhoAir at Elevation
Site:Location,BEIJING - CHN IWEC Data WMO#=545110,39.80,116.47,8.00,32.00,100941,1.1997
! <Site Water Mains Temperature Information>,Calculation Method{},Water Mains Temperature Schedule Name{},Annual Average Outdoor Air Temperature{C},Maximum Difference In Monthly Average Outdoor Air Temperatures{deltaC},Fixed Default Water Mains Temperature{C}
Site Water Mains Temperature Information,FixedDefault,NA,NA,NA,10.0
! <Building Information>, Building Name,North Axis {deg},Terrain,  Loads Convergence Tolerance Value,Temperature Convergence Tolerance Value,  Solar Distribution,Maximum Number of Warmup Days,Minimum Number of Warmup Days
 Building Information,Building 1,0.000,Suburbs,4.00000E-002,0.40000,FullExterior,50,6
! <Inside Convection Algorithm>, Algorithm {Simple | TARP | CeilingDiffuser | AdaptiveConvectionAlgorithm}
Inside Convection Algorithm,TARP
! <Outside Convection Algorithm>, Algorithm {SimpleCombined | TARP | MoWitt | DOE-2 | AdaptiveConvectionAlgorithm}
Outside Convection Algorithm,DOE-2
! <Sky Radiance Distribution>, Value {Anisotropic}
Sky Radiance Distribution,Anisotropic
! <Zone Air Solution Algorithm>, Algorithm {ThirdOrderBackwardDifference | AnalyticalSolution | EulerMethod}, Space Heat Balance Sizing, Space Heat Balance Simulation
 Zone Air Solution Algorithm, ThirdOrderBackwardDifference, No, No
! <Zone Air Carbon Dioxide Balance Simulation>, Simulation {Yes/No}, Carbon Dioxide Concentration
 Zone Air Carbon Dioxide Balance Simulation, No,N/A
! <Zone Air Generic Contaminant Balance Simulation>, Simulation {Yes/No}, Generic Contaminant Concentration
 Zone Air Generic Contaminant Balance Simulation, No,N/A
! <Zone Air Mass Flow Balance Simulation>, Enforce Mass Balance, Adjust Zone Mixing and Return {AdjustMixingOnly | AdjustReturnOnly | AdjustMixingThenReturn | AdjustReturnThenMixing | None}, Adjust Zone Infiltration {AddInfiltration | AdjustInfiltration | None}, Infiltration Zones {MixingSourceZonesOnly | AllZones}
 Zone Air Mass Flow Balance Simulation, No,N/A,N/A,N/A
! <HVACSystemRootFindingAlgorithm>, Value {RegulaFalsi | Bisection | BisectionThenRegulaFalsi | RegulaFalsiThenBisection}
 HVACSystemRootFindingAlgorithm, RegulaFalsi
! <Environment:Site Atmospheric Variation>,Wind Speed Profile Exponent {},Wind Speed Profile Boundary Layer Thickness {m},Air Temperature Gradient Coefficient {K/m}
Environment:Site Atmospheric Variation,0.220,370.000,6.500000E-003
! <Surface Geometry>,Starting Corner,Vertex Input Direction,Coordinate System,Daylight Reference Point Coordinate System,Rectangular (Simple) Surface Coordinate System
 Surface Geometry,UpperLeftCorner,Counterclockwise,RelativeCoordinateSystem,RelativeCoordinateSystem,RelativeToZoneOrigin
! <Surface Heat Transfer Algorithm>, Value {CTF - ConductionTransferFunction | EMPD - MoisturePenetrationDepthConductionTransferFunction | CondFD - ConductionFiniteDifference | HAMT - CombinedHeatAndMoistureFiniteElement} - Description,Inside Surface Max Temperature Limit{C}, Surface Convection Coefficient Lower Limit {W/m2-K}, Surface Convection Coefficient Upper Limit {W/m2-K}
Surface Heat Transfer Algorithm, CTF - ConductionTransferFunction,200,0.10,1000.0
! <Shading Summary>, Number of Fixed Detached Shades, Number of Building Detached Shades, Number of Attached Shades
 Shading Summary,0,0,0
! <Zone Summary>, Number of Zones, Number of Zone Surfaces, Number of SubSurfaces
 Zone Summary,56,786,289
! <Zone Information>,Zone Name,North Axis {deg},Origin X-Coordinate {m},Origin Y-Coordinate {m},Origin Z-Coordinate {m},Centroid X-Coordinate {m},Centroid Y-Coordinate {m},Centroid Z-Coordinate {m},Type,Zone Multiplier,Zone List Multiplier,Minimum X {m},Maximum X {m},Minimum Y {m},Maximum Y {m},Minimum Z {m},Maximum Z {m},Ceiling Height {m},Volume {m3},Zone Inside Convection Algorithm {Simple-Detailed-CeilingDiffuser-TrombeWall},Zone Outside Convection Algorithm {Simple-Detailed-Tarp-MoWitt-DOE-2-BLAST}, Floor Area {m2},Exterior Gross Wall Area {m2},Exterior Net Wall Area {m2},Exterior Window Area {m2}, Number of Surfaces, Number of SubSurfaces, Number of Shading SubSurfaces,  Part of Total Building Area
 Zone Information, THERMAL ZONE: P1-1-COMMERCE 1,0.0,-7.64,38.04,3.72E-003,-15.08,33.84,2.50,1,1,1,-24.39,-7.64,28.04,38.04,3.72E-003,5.00,5.00,653.79,TARP,TARP,130.76,0.00,0.00,0.00,6,2,0,Yes
 Zone Information, THERMAL ZONE: P1-1-DINING 1,0.0,-24.39,31.95,3.72E-003,-15.74,25.64,2.50,1,1,1,-25.69,-7.64,18.04,31.95,3.72E-003,5.00,5.00,719.07,TARP,TARP,143.81,0.00,0.00,0.00,6,2,0,Yes
 Zone Information, THERMAL ZONE: P1-1-OFFICE 1,0.0,-7.64,38.04,3.72E-003,-14.99,41.69,2.50,1,1,1,-23.08,-7.64,38.04,45.54,3.72E-003,5.00,5.00,548.84,TARP,TARP,109.77,0.00,0.00,0.00,6,8,0,Yes
 Zone Information, THERMAL ZONE: P1-1-OFFICE 2,0.0,-7.64,45.54,3.72E-003,-14.18,49.18,2.50,1,1,1,-21.48,-7.64,45.54,53.04,3.72E-003,5.00,5.00,488.58,TARP,TARP,97.72,0.00,0.00,0.00,6,6,0,Yes
 Zone Information, THERMAL ZONE: P1-2-BREAKROOM 1,0.0,-18.00,61.76,3.72E-003,-12.97,60.49,2.50,1,1,1,-18.54,-7.64,59.26,61.76,3.72E-003,5.00,5.00,132.81,TARP,TARP,26.56,0.00,0.00,0.00,6,1,0,Yes
 Zone Information, THERMAL ZONE: P1-2-DINING 1,0.0,-7.64,79.26,3.72E-003,-10.58,82.80,2.50,1,1,1,-14.25,-7.64,79.26,86.76,3.72E-003,5.00,5.00,217.63,TARP,TARP,43.53,0.00,0.00,0.00,6,5,0,Yes
 Zone Information, THERMAL ZONE: P1-2-RESTROOM 1,0.0,-7.64,79.26,3.72E-003,-11.97,69.87,2.50,1,1,1,-18.00,-7.64,61.76,79.26,3.72E-003,5.00,5.00,742.19,TARP,TARP,148.44,0.00,0.00,0.00,6,1,0,Yes
 Zone Information, THERMAL ZONE: P1-3-COMMERCE 1,0.0,-7.64,120.90,3.72E-003,-10.29,115.90,2.50,1,1,1,-12.95,-7.64,110.90,120.90,3.72E-003,5.00,5.00,265.09,TARP,TARP,53.02,0.00,0.00,0.00,6,4,0,Yes
 Zone Information, THERMAL ZONE: P1-4-COMMERCE 1,0.0,-7.64,141.82,3.72E-003,-10.29,136.82,2.50,1,1,1,-12.95,-7.64,131.82,141.82,3.72E-003,5.00,5.00,265.09,TARP,TARP,53.02,0.00,0.00,0.00,6,8,0,Yes
 Zone Information, THERMAL ZONE: P1-4-DINING 1,0.0,-7.64,141.82,3.72E-003,-10.29,146.82,2.50,1,1,1,-12.95,-7.64,141.82,151.82,3.72E-003,5.00,5.00,265.09,TARP,TARP,53.02,0.00,0.00,0.00,6,8,0,Yes
 Zone Information, THERMAL ZONE: P1-5-COMMERCE 1,0.0,-7.64,182.79,3.72E-003,-10.47,176.69,2.50,1,1,1,-13.61,-7.64,170.34,182.79,3.72E-003,5.00,5.00,350.92,TARP,TARP,70.18,0.00,0.00,0.00,6,5,0,Yes
 Zone Information, THERMAL ZONE: P1-6-COMMERCE 1,0.0,-7.73,193.57,3.72E-003,-11.50,199.04,2.50,1,1,1,-14.93,-7.73,189.13,207.19,3.72E-003,5.00,5.00,509.79,TARP,TARP,101.96,0.00,0.00,0.00,6,9,0,Yes
 Zone Information, THERMAL ZONE: P1-7-DINING 1,0.0,-8.89,215.16,3.72E-003,-12.26,217.77,2.50,1,1,1,-15.63,-8.89,214.82,220.73,3.72E-003,5.00,5.00,179.78,TARP,TARP,35.96,0.00,0.00,0.00,6,5,0,Yes
 Zone Information, THERMAL ZONE: P1-7-OFFICE 1,0.0,-9.19,220.73,3.72E-003,-12.73,224.64,2.50,1,1,1,-15.93,-9.19,220.38,229.83,3.72E-003,5.00,5.00,252.21,TARP,TARP,50.44,0.00,0.00,0.00,7,5,0,Yes
 Zone Information, THERMAL ZONE: P1-8-RESTROOM 1,0.0,18.17,223.70,3.72E-003,13.48,211.21,2.50,1,1,1,8.64,18.17,198.86,223.70,3.72E-003,5.00,5.00,772.73,TARP,TARP,154.55,0.00,0.00,0.00,6,1,0,Yes
 Zone Information, THERMAL ZONE: P1-9-COMMERCE 1,0.0,12.01,162.56,3.72E-003,9.01,158.81,2.50,1,1,1,6.01,12.01,155.06,162.56,3.72E-003,5.00,5.00,225.00,TARP,TARP,45.00,0.00,0.00,0.00,6,2,0,Yes
 Zone Information, THERMAL ZONE: P1-10-RESTROOM 1,0.0,12.01,151.80,3.72E-003,9.01,140.55,2.50,1,1,1,6.01,12.01,129.30,151.80,3.72E-003,5.00,5.00,675.00,TARP,TARP,135.00,0.00,0.00,0.00,6,1,0,Yes
 Zone Information, THERMAL ZONE: P1-11-COMMERCE 1,0.0,15.22,58.96,3.72E-003,11.04,55.07,2.50,1,1,1,6.01,16.83,51.46,58.96,3.72E-003,5.00,5.00,375.67,TARP,TARP,75.13,0.00,0.00,0.00,6,5,0,Yes
 Zone Information, THERMAL ZONE: P1-11-COMMERCE 2,0.0,6.01,51.46,3.72E-003,11.84,47.58,2.50,1,1,1,6.01,18.43,43.96,51.46,3.72E-003,5.00,5.00,435.94,TARP,TARP,87.19,0.00,0.00,0.00,6,5,0,Yes
 Zone Information, THERMAL ZONE: P1-11-OFFICE 1,0.0,12.01,73.96,3.72E-003,9.44,70.02,2.50,1,1,1,6.01,13.61,66.46,73.96,3.72E-003,5.00,5.00,255.13,TARP,TARP,51.03,0.00,0.00,0.00,6,5,0,Yes
 Zone Information, THERMAL ZONE: P1-11-OFFICE 2,0.0,6.01,66.46,3.72E-003,10.24,62.55,2.50,1,1,1,6.01,15.22,58.96,66.46,3.72E-003,5.00,5.00,315.40,TARP,TARP,63.08,0.00,0.00,0.00,6,5,0,Yes
 Zone Information, THERMAL ZONE: P2-1-COMMERCE 2,0.0,-17.03,247.23,3.72E-003,-13.70,243.05,2.50,1,1,1,-17.03,-10.63,238.69,247.23,3.72E-003,5.00,5.00,204.24,TARP,TARP,40.85,0.00,0.00,0.00,6,2,0,Yes
 Zone Information, THERMAL ZONE: P2-1-COMMERCE 3,0.0,-13.25,255.76,3.72E-003,-15.31,251.58,2.50,1,1,1,-18.94,-11.94,247.23,255.76,3.72E-003,5.00,5.00,230.04,TARP,TARP,46.01,0.00,0.00,0.00,6,2,0,Yes
 Zone Information, THERMAL ZONE: P2-2-RESTROOM 1,0.0,-15.93,273.14,3.72E-003,-21.55,284.63,2.50,1,1,1,-27.38,-15.93,269.85,297.90,3.72E-003,5.00,5.00,918.63,TARP,TARP,183.73,0.00,0.00,0.00,7,1,0,Yes
 Zone Information, THERMAL ZONE: P3-1-COMMERCE 1,0.0,-12.50,313.31,3.72E-003,-7.50,318.32,2.50,1,1,1,-12.50,-2.50,313.31,323.32,3.72E-003,5.00,5.00,500.00,TARP,TARP,100.00,0.00,0.00,0.00,6,2,0,Yes
 Zone Information, THERMAL ZONE: P3-1-DINING 1,0.0,-12.50,323.32,3.72E-003,-17.50,318.31,2.50,1,1,1,-22.50,-12.50,313.31,323.32,3.72E-003,5.00,5.00,500.00,TARP,TARP,100.00,0.00,0.00,0.00,6,3,0,Yes
 Zone Information, THERMAL ZONE: P3-2-DINING 1,0.0,22.50,323.32,3.72E-003,20.00,318.31,2.50,1,1,1,17.50,22.50,313.31,323.32,3.72E-003,5.00,5.00,250.00,TARP,TARP,50.00,0.00,0.00,0.00,6,3,0,Yes
 Zone Information, THERMAL ZONE: P3-2-RESTROOM 1,0.0,17.50,323.32,3.72E-003,10.00,318.31,2.50,1,1,1,2.50,17.50,313.31,323.32,3.72E-003,5.00,5.00,750.00,TARP,TARP,150.00,0.00,0.00,0.00,6,1,0,Yes
 Zone Information, THERMAL ZONE: P4-1-COMMERCE 1,0.0,32.56,296.31,3.72E-003,27.33,293.30,2.50,1,1,1,22.13,32.56,286.58,298.33,3.72E-003,5.00,5.00,367.94,TARP,TARP,73.59,0.00,0.00,0.00,7,4,0,Yes
 Zone Information, THERMAL ZONE: P4-2-COMMERCE 1,0.0,28.06,277.40,3.72E-003,24.19,273.68,2.50,1,1,1,20.43,28.06,269.25,277.40,3.72E-003,5.00,5.00,230.89,TARP,TARP,46.18,0.00,0.00,0.00,6,5,0,Yes
 Zone Information, THERMAL ZONE: P4-2-COMMERCE 2,0.0,20.43,270.60,3.72E-003,22.66,266.75,2.50,1,1,1,19.45,26.12,262.81,270.60,3.72E-003,5.00,5.00,184.04,TARP,TARP,36.81,0.00,0.00,0.00,6,5,0,Yes
 Zone Information, THERMAL ZONE: P4-3-COMMERCE 1,0.0,23.10,256.55,3.72E-003,20.26,254.15,2.50,1,1,1,17.64,23.10,250.47,257.66,3.72E-003,5.00,5.00,136.20,TARP,TARP,27.24,0.00,0.00,0.00,6,5,0,Yes
 Zone Information, THERMAL ZONE: P4-3-COMMERCE 2,0.0,17.64,251.65,3.72E-003,19.09,248.11,2.50,1,1,1,16.75,21.65,244.39,251.65,3.72E-003,5.00,5.00,119.91,TARP,DOE-2,23.98,0.00,0.00,0.00,6,5,0,Yes
 Zone Information, THERMAL ZONE: HALL-1-1,0.0,-19.87,53.04,3.72E-003,-17.53,26.86,2.50,1,1,1,-35.00,0.00,0.00,53.04,3.72E-003,5.00,5.00,2925.62,TARP,TARP,585.12,358.45,228.37,130.08,9,9,3,Yes
 Zone Information, THERMAL ZONE: HALL-1-2,0.0,-12.64,86.76,3.72E-003,-12.06,53.96,2.50,1,1,1,-28.99,0.00,18.04,86.76,3.72E-003,5.00,5.00,3472.47,TARP,TARP,694.49,172.41,15.69,156.72,12,16,6,Yes
 Zone Information, THERMAL ZONE: HALL-1-3,0.0,-12.95,120.90,3.72E-003,-10.43,93.34,2.50,1,1,1,-21.77,0.00,59.26,120.90,3.72E-003,5.00,5.00,3794.78,TARP,TARP,758.96,171.75,17.42,154.33,10,5,5,Yes
 Zone Information, THERMAL ZONE: HALL-1-4,0.0,-12.95,151.82,3.72E-003,-10.10,129.34,2.50,1,1,1,-19.07,0.00,110.90,151.82,3.72E-003,5.00,5.00,1950.84,TARP,TARP,390.17,154.68,14.21,140.46,8,12,6,Yes
 Zone Information, THERMAL ZONE: HALL-1-5,0.0,-13.61,182.79,3.72E-003,-10.02,159.06,2.50,1,1,1,-19.55,0.00,131.82,182.79,3.72E-003,5.00,5.00,2754.63,TARP,TARP,550.93,155.50,16.12,139.38,9,11,6,Yes
 Zone Information, THERMAL ZONE: HALL-1-6,0.0,-14.93,207.19,3.72E-003,-10.62,188.62,2.50,1,1,1,-22.37,0.00,170.34,207.19,3.72E-003,5.00,5.00,1969.22,TARP,TARP,393.84,122.79,11.66,111.12,7,11,5,Yes
 Zone Information, THERMAL ZONE: HALL-1-7,0.0,-15.93,225.94,3.72E-003,-11.64,210.46,2.50,1,1,1,-24.53,0.00,193.57,225.94,3.72E-003,5.00,5.00,1903.67,TARP,TARP,380.73,94.38,9.39,84.99,8,6,6,Yes
 Zone Information, THERMAL ZONE: HALL-1-8,0.0,-24.53,225.94,3.72E-003,-10.70,226.51,2.50,1,1,1,-25.00,0.00,215.16,235.00,3.72E-003,5.00,5.00,1294.14,TARP,TARP,258.83,45.42,28.47,16.95,8,9,4,Yes
 Zone Information, THERMAL ZONE: HALL-1-9,0.0,18.17,223.70,3.72E-003,10.50,220.84,2.50,1,1,1,0.00,25.00,201.04,235.00,3.72E-003,5.00,5.00,2326.03,TARP,TARP,465.21,56.71,29.38,27.33,6,2,5,Yes
 Zone Information, THERMAL ZONE: HALL-1-10,0.0,24.27,223.70,3.72E-003,11.55,186.15,2.50,1,1,1,0.00,24.27,155.06,223.70,3.72E-003,5.00,5.00,4621.61,TARP,TARP,924.32,307.65,28.29,279.36,8,3,7,Yes
 Zone Information, THERMAL ZONE: HALL-1-11,0.0,17.59,162.56,3.72E-003,8.03,148.61,2.50,1,1,1,0.00,17.97,129.30,162.56,3.72E-003,5.00,5.00,1182.39,TARP,TARP,236.48,53.86,6.15,47.71,7,3,6,Yes
 Zone Information, THERMAL ZONE: HALL-1-12,0.0,17.97,151.80,3.72E-003,10.52,98.72,2.50,1,1,1,0.00,24.51,43.96,151.80,3.72E-003,5.00,5.00,7283.27,TARP,TARP,1456.65,391.76,35.02,356.74,11,18,7,Yes
 Zone Information, THERMAL ZONE: HALL-1-13,0.0,24.51,73.96,3.72E-003,15.16,42.04,2.50,1,1,1,0.00,35.00,0.00,73.96,3.72E-003,5.00,5.00,7188.07,TARP,TARP,1437.61,465.40,236.93,228.47,9,5,4,Yes
 Zone Information, THERMAL ZONE: HALL-2-1,0.0,-18.94,255.76,3.72E-003,-17.95,242.35,2.50,1,1,1,-31.13,-5.00,230.00,255.76,3.72E-003,5.00,5.00,1689.59,TARP,TARP,337.92,151.09,31.10,119.99,7,3,3,Yes
 Zone Information, THERMAL ZONE: HALL-2-2,0.0,-27.38,293.33,3.72E-003,-20.39,266.12,2.50,1,1,1,-40.08,-5.57,238.69,293.33,3.72E-003,5.00,5.00,3700.14,TARP,TARP,740.03,367.37,191.57,175.80,9,3,4,Yes
 Zone Information, THERMAL ZONE: HALL-2-3,0.0,-40.08,293.33,3.72E-003,-26.83,297.81,2.50,1,1,1,-50.00,-10.87,273.14,335.00,3.72E-003,5.00,5.00,3632.36,TARP,TARP,726.47,350.04,154.85,195.19,7,2,3,Yes
 Zone Information, THERMAL ZONE: HALL-3-1,0.0,-2.50,323.32,3.72E-003,-16.88,318.99,2.50,1,1,1,-50.00,-2.50,300.00,335.00,3.72E-003,5.00,5.00,4250.00,TARP,TARP,850.00,300.00,83.34,216.66,9,6,3,Yes
 Zone Information, THERMAL ZONE: HALL-3-2,0.0,2.50,323.32,3.72E-003,-4.78E-014,317.50,2.50,1,1,1,-2.50,2.50,300.00,335.00,3.72E-003,5.00,5.00,875.00,TARP,TARP,175.00,50.00,28.84,21.16,6,1,4,Yes
 Zone Information, THERMAL ZONE: HALL-3-3,0.0,2.50,335.00,3.72E-003,16.88,318.99,2.50,1,1,1,2.50,50.00,300.00,335.00,3.72E-003,5.00,5.00,4250.00,TARP,TARP,850.00,300.00,83.34,216.66,9,5,3,Yes
 Zone Information, THERMAL ZONE: HALL-4-1,0.0,32.56,296.31,3.72E-003,30.09,304.08,2.50,1,1,1,13.83,50.00,292.43,335.00,3.72E-003,5.00,5.00,2942.19,TARP,TARP,588.44,237.16,56.06,181.10,7,3,3,Yes
 Zone Information, THERMAL ZONE: HALL-4-2,0.0,40.79,296.31,3.72E-003,24.92,282.14,2.50,1,1,1,9.47,40.79,264.06,296.31,3.72E-003,5.00,5.00,2596.79,TARP,TARP,519.36,240.71,153.13,87.58,9,11,4,Yes
 Zone Information, THERMAL ZONE: HALL-4-3,0.0,36.29,277.40,3.72E-003,21.47,260.89,2.50,1,1,1,6.64,36.29,245.64,277.40,3.72E-003,5.00,5.00,1944.08,TARP,TARP,388.82,200.34,103.59,96.74,10,11,4,Yes
 Zone Information, THERMAL ZONE: HALL-4-4,0.0,31.32,256.55,3.72E-003,18.77,244.13,2.50,1,1,1,5.00,31.32,230.00,256.55,3.72E-003,5.00,5.00,1852.95,TARP,TARP,370.59,190.29,66.57,123.72,7,3,3,Yes
! <Zone Internal Gains Nominal>,Zone Name, Floor Area {m2},# Occupants,Area per Occupant {m2/person},Occupant per Area {person/m2},Interior Lighting {W/m2},Electric Load {W/m2},Gas Load {W/m2},Other Load {W/m2},Hot Water Eq {W/m2},Steam Equipment {W/m2},Sum Loads per Area {W/m2},Outdoor Controlled Baseboard Heat
 Zone Internal Gains Nominal, THERMAL ZONE: P1-1-COMMERCE 1,130.76,21.1,6.194,0.161,18.299,3.229,0.000,0.000,0.000,0.000,21.528,No
 Zone Internal Gains Nominal, THERMAL ZONE: P1-1-DINING 1,143.81,15.5,9.290,0.108,9.688,10.764,0.000,0.000,0.000,0.000,20.451,No
 Zone Internal Gains Nominal, THERMAL ZONE: P1-1-OFFICE 1,109.77,5.6,19.559,5.113E-002,10.656,6.889,0.000,0.000,0.000,0.000,17.545,No
 Zone Internal Gains Nominal, THERMAL ZONE: P1-1-OFFICE 2,97.72,5.0,19.559,5.113E-002,10.656,6.889,0.000,0.000,0.000,0.000,17.545,No
 Zone Internal Gains Nominal, THERMAL ZONE: P1-2-BREAKROOM 1,26.56,1.4,18.581,5.382E-002,9.688,5.813,0.000,0.000,0.000,0.000,15.500,No
 Zone Internal Gains Nominal, THERMAL ZONE: P1-2-DINING 1,43.53,4.7,9.290,0.108,9.688,10.764,0.000,0.000,0.000,0.000,20.451,No
 Zone Internal Gains Nominal, THERMAL ZONE: P1-2-RESTROOM 1,148.44,16.0,9.290,0.108,8.719,0.753,0.000,0.000,0.000,0.000,9.472,No
 Zone Internal Gains Nominal, THERMAL ZONE: P1-3-COMMERCE 1,53.02,8.6,6.194,0.161,18.299,3.229,0.000,0.000,0.000,0.000,21.528,No
 Zone Internal Gains Nominal, THERMAL ZONE: P1-4-COMMERCE 1,53.02,8.6,6.194,0.161,18.299,3.229,0.000,0.000,0.000,0.000,21.528,No
 Zone Internal Gains Nominal, THERMAL ZONE: P1-4-DINING 1,53.02,5.7,9.290,0.108,9.688,10.764,0.000,0.000,0.000,0.000,20.451,No
 Zone Internal Gains Nominal, THERMAL ZONE: P1-5-COMMERCE 1,70.18,11.3,6.194,0.161,18.299,3.229,0.000,0.000,0.000,0.000,21.528,No
 Zone Internal Gains Nominal, THERMAL ZONE: P1-6-COMMERCE 1,101.96,16.5,6.194,0.161,18.299,3.229,0.000,0.000,0.000,0.000,21.528,No
 Zone Internal Gains Nominal, THERMAL ZONE: P1-7-DINING 1,35.96,3.9,9.290,0.108,9.688,10.764,0.000,0.000,0.000,0.000,20.451,No
 Zone Internal Gains Nominal, THERMAL ZONE: P1-7-OFFICE 1,50.44,2.6,19.559,5.113E-002,10.656,6.889,0.000,0.000,0.000,0.000,17.545,No
 Zone Internal Gains Nominal, THERMAL ZONE: P1-8-RESTROOM 1,154.55,16.6,9.290,0.108,8.719,0.753,0.000,0.000,0.000,0.000,9.472,No
 Zone Internal Gains Nominal, THERMAL ZONE: P1-9-COMMERCE 1,45.00,7.3,6.194,0.161,18.299,3.229,0.000,0.000,0.000,0.000,21.528,No
 Zone Internal Gains Nominal, THERMAL ZONE: P1-10-RESTROOM 1,135.00,14.5,9.290,0.108,8.719,0.753,0.000,0.000,0.000,0.000,9.472,No
 Zone Internal Gains Nominal, THERMAL ZONE: P1-11-COMMERCE 1,75.13,12.1,6.194,0.161,18.299,3.229,0.000,0.000,0.000,0.000,21.528,No
 Zone Internal Gains Nominal, THERMAL ZONE: P1-11-COMMERCE 2,87.19,14.1,6.194,0.161,18.299,3.229,0.000,0.000,0.000,0.000,21.528,No
 Zone Internal Gains Nominal, THERMAL ZONE: P1-11-OFFICE 1,51.03,2.6,19.559,5.113E-002,10.656,6.889,0.000,0.000,0.000,0.000,17.545,No
 Zone Internal Gains Nominal, THERMAL ZONE: P1-11-OFFICE 2,63.08,3.2,19.559,5.113E-002,10.656,6.889,0.000,0.000,0.000,0.000,17.545,No
 Zone Internal Gains Nominal, THERMAL ZONE: P2-1-COMMERCE 2,40.85,6.6,6.194,0.161,18.299,3.229,0.000,0.000,0.000,0.000,21.528,No
 Zone Internal Gains Nominal, THERMAL ZONE: P2-1-COMMERCE 3,46.01,7.4,6.194,0.161,18.299,3.229,0.000,0.000,0.000,0.000,21.528,No
 Zone Internal Gains Nominal, THERMAL ZONE: P2-2-RESTROOM 1,183.73,19.8,9.290,0.108,8.719,0.753,0.000,0.000,0.000,0.000,9.472,No
 Zone Internal Gains Nominal, THERMAL ZONE: P3-1-COMMERCE 1,100.00,16.1,6.194,0.161,18.299,3.229,0.000,0.000,0.000,0.000,21.528,No
 Zone Internal Gains Nominal, THERMAL ZONE: P3-1-DINING 1,100.00,10.8,9.290,0.108,9.688,10.764,0.000,0.000,0.000,0.000,20.451,No
 Zone Internal Gains Nominal, THERMAL ZONE: P3-2-DINING 1,50.00,5.4,9.290,0.108,9.688,10.764,0.000,0.000,0.000,0.000,20.451,No
 Zone Internal Gains Nominal, THERMAL ZONE: P3-2-RESTROOM 1,150.00,16.1,9.290,0.108,8.719,0.753,0.000,0.000,0.000,0.000,9.472,No
 Zone Internal Gains Nominal, THERMAL ZONE: P4-1-COMMERCE 1,73.59,11.9,6.194,0.161,18.299,3.229,0.000,0.000,0.000,0.000,21.528,No
 Zone Internal Gains Nominal, THERMAL ZONE: P4-2-COMMERCE 1,46.18,7.5,6.194,0.161,18.299,3.229,0.000,0.000,0.000,0.000,21.528,No
 Zone Internal Gains Nominal, THERMAL ZONE: P4-2-COMMERCE 2,36.81,5.9,6.194,0.161,18.299,3.229,0.000,0.000,0.000,0.000,21.528,No
 Zone Internal Gains Nominal, THERMAL ZONE: P4-3-COMMERCE 1,27.24,4.4,6.194,0.161,18.299,3.229,0.000,0.000,0.000,0.000,21.528,No
 Zone Internal Gains Nominal, THERMAL ZONE: P4-3-COMMERCE 2,23.98,3.9,6.194,0.161,18.299,3.229,0.000,0.000,0.000,0.000,21.528,No
 Zone Internal Gains Nominal, THERMAL ZONE: HALL-1-1,585.12,31.5,18.581,5.382E-002,9.688,5.813,0.000,0.000,0.000,0.000,15.500,No
 Zone Internal Gains Nominal, THERMAL ZONE: HALL-1-2,694.49,37.4,18.581,5.382E-002,9.688,5.813,0.000,0.000,0.000,0.000,15.500,No
 Zone Internal Gains Nominal, THERMAL ZONE: HALL-1-3,758.96,40.8,18.581,5.382E-002,9.688,5.813,0.000,0.000,0.000,0.000,15.500,No
 Zone Internal Gains Nominal, THERMAL ZONE: HALL-1-4,390.17,21.0,18.581,5.382E-002,9.688,5.813,0.000,0.000,0.000,0.000,15.500,No
 Zone Internal Gains Nominal, THERMAL ZONE: HALL-1-5,550.93,29.7,18.581,5.382E-002,9.688,5.813,0.000,0.000,0.000,0.000,15.500,No
 Zone Internal Gains Nominal, THERMAL ZONE: HALL-1-6,393.84,21.2,18.581,5.382E-002,9.688,5.813,0.000,0.000,0.000,0.000,15.500,No
 Zone Internal Gains Nominal, THERMAL ZONE: HALL-1-7,380.73,20.5,18.581,5.382E-002,9.688,5.813,0.000,0.000,0.000,0.000,15.500,No
 Zone Internal Gains Nominal, THERMAL ZONE: HALL-1-8,258.83,13.9,18.581,5.382E-002,9.688,5.813,0.000,0.000,0.000,0.000,15.500,No
 Zone Internal Gains Nominal, THERMAL ZONE: HALL-1-9,465.21,25.0,18.581,5.382E-002,9.688,5.813,0.000,0.000,0.000,0.000,15.500,No
 Zone Internal Gains Nominal, THERMAL ZONE: HALL-1-10,924.32,49.7,18.581,5.382E-002,9.688,5.813,0.000,0.000,0.000,0.000,15.500,No
 Zone Internal Gains Nominal, THERMAL ZONE: HALL-1-11,236.48,12.7,18.581,5.382E-002,9.688,5.813,0.000,0.000,0.000,0.000,15.500,No
 Zone Internal Gains Nominal, THERMAL ZONE: HALL-1-12,1456.65,78.4,18.581,5.382E-002,9.688,5.813,0.000,0.000,0.000,0.000,15.500,No
 Zone Internal Gains Nominal, THERMAL ZONE: HALL-1-13,1437.61,77.4,18.581,5.382E-002,9.688,5.813,0.000,0.000,0.000,0.000,15.500,No
 Zone Internal Gains Nominal, THERMAL ZONE: HALL-2-1,337.92,18.2,18.581,5.382E-002,9.688,5.813,0.000,0.000,0.000,0.000,15.500,No
 Zone Internal Gains Nominal, THERMAL ZONE: HALL-2-2,740.03,39.8,18.581,5.382E-002,9.688,5.813,0.000,0.000,0.000,0.000,15.500,No
 Zone Internal Gains Nominal, THERMAL ZONE: HALL-2-3,726.47,39.1,18.581,5.382E-002,9.688,5.813,0.000,0.000,0.000,0.000,15.500,No
 Zone Internal Gains Nominal, THERMAL ZONE: HALL-3-1,850.00,45.7,18.581,5.382E-002,9.688,5.813,0.000,0.000,0.000,0.000,15.500,No
 Zone Internal Gains Nominal, THERMAL ZONE: HALL-3-2,175.00,9.4,18.581,5.382E-002,9.688,5.813,0.000,0.000,0.000,0.000,15.500,No
 Zone Internal Gains Nominal, THERMAL ZONE: HALL-3-3,850.00,45.7,18.581,5.382E-002,9.688,5.813,0.000,0.000,0.000,0.000,15.500,No
 Zone Internal Gains Nominal, THERMAL ZONE: HALL-4-1,588.44,31.7,18.581,5.382E-002,9.688,5.813,0.000,0.000,0.000,0.000,15.500,No
 Zone Internal Gains Nominal, THERMAL ZONE: HALL-4-2,519.36,28.0,18.581,5.382E-002,9.688,5.813,0.000,0.000,0.000,0.000,15.500,No
 Zone Internal Gains Nominal, THERMAL ZONE: HALL-4-3,388.82,20.9,18.581,5.382E-002,9.688,5.813,0.000,0.000,0.000,0.000,15.500,No
 Zone Internal Gains Nominal, THERMAL ZONE: HALL-4-4,370.59,19.9,18.581,5.382E-002,9.688,5.813,0.000,0.000,0.000,0.000,15.500,No
! <People Internal Gains Nominal>,Name,Schedule Name,Zone Name,Zone Floor Area {m2},# Zone Occupants,Number of People {},People/Floor Area {person/m2},Floor Area per person {m2/person},Fraction Radiant,Fraction Convected,Sensible Fraction Calculation,Activity level,ASHRAE 55 Warnings,Carbon Dioxide Generation Rate,Nominal Minimum Number of People,Nominal Maximum Number of People
 People Internal Gains Nominal, P1-11-OFFICE 1 189.1-2009 - OFFICE - CLOSEDOFFICE - CZ4-8 PEOPLE 1,OFFICE WORK OCC,THERMAL ZONE: P1-11-OFFICE 1,51.03,2.6,2.6,5.113E-002,19.559,0.300,0.700,AutoCalculate,OFFICE ACTIVITY,No,3.8200E-008,0,3
 People Internal Gains Nominal, P1-1-OFFICE 1 189.1-2009 - OFFICE - CLOSEDOFFICE - CZ4-8 PEOPLE 1,OFFICE WORK OCC,THERMAL ZONE: P1-1-OFFICE 1,109.77,5.6,5.6,5.113E-002,19.559,0.300,0.700,AutoCalculate,OFFICE ACTIVITY,No,3.8200E-008,0,6
 People Internal Gains Nominal, P1-1-OFFICE 2 189.1-2009 - OFFICE - CLOSEDOFFICE - CZ4-8 PEOPLE 1,OFFICE WORK OCC,THERMAL ZONE: P1-1-OFFICE 2,97.72,5.0,5.0,5.113E-002,19.559,0.300,0.700,AutoCalculate,OFFICE ACTIVITY,No,3.8200E-008,0,5
 People Internal Gains Nominal, P1-11-OFFICE 2 189.1-2009 - OFFICE - CLOSEDOFFICE - CZ4-8 PEOPLE 1,OFFICE WORK OCC,THERMAL ZONE: P1-11-OFFICE 2,63.08,3.2,3.2,5.113E-002,19.559,0.300,0.700,AutoCalculate,OFFICE ACTIVITY,No,3.8200E-008,0,3
 People Internal Gains Nominal, P1-7-OFFICE 1 189.1-2009 - OFFICE - CLOSEDOFFICE - CZ4-8 PEOPLE 1,OFFICE WORK OCC,THERMAL ZONE: P1-7-OFFICE 1,50.44,2.6,2.6,5.113E-002,19.559,0.300,0.700,AutoCalculate,OFFICE ACTIVITY,No,3.8200E-008,0,3
 People Internal Gains Nominal, P1-2-RESTROOM 1 189.1-2009 - OFFICE - RESTROOM - CZ4-8 PEOPLE,OFFICE MISC OCC,THERMAL ZONE: P1-2-RESTROOM 1,148.44,16.0,16.0,0.108,9.290,0.300,0.700,AutoCalculate,OFFICE ACTIVITY,No,3.8200E-008,0,16
 People Internal Gains Nominal, P1-10-RESTROOM 1 189.1-2009 - OFFICE - RESTROOM - CZ4-8 PEOPLE,OFFICE MISC OCC,THERMAL ZONE: P1-10-RESTROOM 1,135.00,14.5,14.5,0.108,9.290,0.300,0.700,AutoCalculate,OFFICE ACTIVITY,No,3.8200E-008,0,15
 People Internal Gains Nominal, P1-8-RESTROOM 1 189.1-2009 - OFFICE - RESTROOM - CZ4-8 PEOPLE,OFFICE MISC OCC,THERMAL ZONE: P1-8-RESTROOM 1,154.55,16.6,16.6,0.108,9.290,0.300,0.700,AutoCalculate,OFFICE ACTIVITY,No,3.8200E-008,0,17
 People Internal Gains Nominal, P2-2-RESTROOM 1 189.1-2009 - OFFICE - RESTROOM - CZ4-8 PEOPLE,OFFICE MISC OCC,THERMAL ZONE: P2-2-RESTROOM 1,183.73,19.8,19.8,0.108,9.290,0.300,0.700,AutoCalculate,OFFICE ACTIVITY,No,3.8200E-008,0,20
 People Internal Gains Nominal, P3-2-RESTROOM 1 189.1-2009 - OFFICE - RESTROOM - CZ4-8 PEOPLE,OFFICE MISC OCC,THERMAL ZONE: P3-2-RESTROOM 1,150.00,16.1,16.1,0.108,9.290,0.300,0.700,AutoCalculate,OFFICE ACTIVITY,No,3.8200E-008,0,16
 People Internal Gains Nominal, HALL-1-1 189.1-2009 - OFFICE - WHOLEBUILDING - LG OFFICE - CZ4-8 PEOPLE,LARGE OFFICE BLDG OCC,THERMAL ZONE: HALL-1-1,585.12,31.5,31.5,5.382E-002,18.581,0.300,0.700,AutoCalculate,LARGE OFFICE ACTIVITY,No,3.8200E-008,0,31
 People Internal Gains Nominal, HALL-1-13 189.1-2009 - OFFICE - WHOLEBUILDING - LG OFFICE - CZ4-8 PEOPLE,LARGE OFFICE BLDG OCC,THERMAL ZONE: HALL-1-13,1437.61,77.4,77.4,5.382E-002,18.581,0.300,0.700,AutoCalculate,LARGE OFFICE ACTIVITY,No,3.8200E-008,0,77
 People Internal Gains Nominal, HALL-1-12 189.1-2009 - OFFICE - WHOLEBUILDING - LG OFFICE - CZ4-8 PEOPLE,LARGE OFFICE BLDG OCC,THERMAL ZONE: HALL-1-12,1456.65,78.4,78.4,5.382E-002,18.581,0.300,0.700,AutoCalculate,LARGE OFFICE ACTIVITY,No,3.8200E-008,0,78
 People Internal Gains Nominal, HALL-2-3 189.1-2009 - OFFICE - WHOLEBUILDING - LG OFFICE - CZ4-8 PEOPLE,LARGE OFFICE BLDG OCC,THERMAL ZONE: HALL-2-3,726.47,39.1,39.1,5.382E-002,18.581,0.300,0.700,AutoCalculate,LARGE OFFICE ACTIVITY,No,3.8200E-008,0,39
 People Internal Gains Nominal, HALL-1-2 189.1-2009 - OFFICE - WHOLEBUILDING - LG OFFICE - CZ4-8 PEOPLE,LARGE OFFICE BLDG OCC,THERMAL ZONE: HALL-1-2,694.49,37.4,37.4,5.382E-002,18.581,0.300,0.700,AutoCalculate,LARGE OFFICE ACTIVITY,No,3.8200E-008,0,37
 People Internal Gains Nominal, HALL-1-9 189.1-2009 - OFFICE - WHOLEBUILDING - LG OFFICE - CZ4-8 PEOPLE,LARGE OFFICE BLDG OCC,THERMAL ZONE: HALL-1-9,465.21,25.0,25.0,5.382E-002,18.581,0.300,0.700,AutoCalculate,LARGE OFFICE ACTIVITY,No,3.8200E-008,0,25
 People Internal Gains Nominal, HALL-1-6 189.1-2009 - OFFICE - WHOLEBUILDING - LG OFFICE - CZ4-8 PEOPLE,LARGE OFFICE BLDG OCC,THERMAL ZONE: HALL-1-6,393.84,21.2,21.2,5.382E-002,18.581,0.300,0.700,AutoCalculate,LARGE OFFICE ACTIVITY,No,3.8200E-008,0,21
 People Internal Gains Nominal, P1-2-BREAKROOM 1 189.1-2009 - OFFICE - WHOLEBUILDING - LG OFFICE - CZ4-8 PEOPLE,LARGE OFFICE BLDG OCC,THERMAL ZONE: P1-2-BREAKROOM 1,26.56,1.4,1.4,5.382E-002,18.581,0.300,0.700,AutoCalculate,LARGE OFFICE ACTIVITY,No,3.8200E-008,0,1
 People Internal Gains Nominal, HALL-1-11 189.1-2009 - OFFICE - WHOLEBUILDING - LG OFFICE - CZ4-8 PEOPLE,LARGE OFFICE BLDG OCC,THERMAL ZONE: HALL-1-11,236.48,12.7,12.7,5.382E-002,18.581,0.300,0.700,AutoCalculate,LARGE OFFICE ACTIVITY,No,3.8200E-008,0,13
 People Internal Gains Nominal, HALL-1-3 189.1-2009 - OFFICE - WHOLEBUILDING - LG OFFICE - CZ4-8 PEOPLE,LARGE OFFICE BLDG OCC,THERMAL ZONE: HALL-1-3,758.96,40.8,40.8,5.382E-002,18.581,0.300,0.700,AutoCalculate,LARGE OFFICE ACTIVITY,No,3.8200E-008,0,41
 People Internal Gains Nominal, HALL-1-4 189.1-2009 - OFFICE - WHOLEBUILDING - LG OFFICE - CZ4-8 PEOPLE,LARGE OFFICE BLDG OCC,THERMAL ZONE: HALL-1-4,390.17,21.0,21.0,5.382E-002,18.581,0.300,0.700,AutoCalculate,LARGE OFFICE ACTIVITY,No,3.8200E-008,0,21
 People Internal Gains Nominal, HALL-2-1 189.1-2009 - OFFICE - WHOLEBUILDING - LG OFFICE - CZ4-8 PEOPLE,LARGE OFFICE BLDG OCC,THERMAL ZONE: HALL-2-1,337.92,18.2,18.2,5.382E-002,18.581,0.300,0.700,AutoCalculate,LARGE OFFICE ACTIVITY,No,3.8200E-008,0,18
 People Internal Gains Nominal, HALL-1-10 189.1-2009 - OFFICE - WHOLEBUILDING - LG OFFICE - CZ4-8 PEOPLE,LARGE OFFICE BLDG OCC,THERMAL ZONE: HALL-1-10,924.32,49.7,49.7,5.382E-002,18.581,0.300,0.700,AutoCalculate,LARGE OFFICE ACTIVITY,No,3.8200E-008,0,50
 People Internal Gains Nominal, HALL-1-5 189.1-2009 - OFFICE - WHOLEBUILDING - LG OFFICE - CZ4-8 PEOPLE,LARGE OFFICE BLDG OCC,THERMAL ZONE: HALL-1-5,550.93,29.7,29.7,5.382E-002,18.581,0.300,0.700,AutoCalculate,LARGE OFFICE ACTIVITY,No,3.8200E-008,0,30
 People Internal Gains Nominal, HALL-1-7 189.1-2009 - OFFICE - WHOLEBUILDING - LG OFFICE - CZ4-8 PEOPLE,LARGE OFFICE BLDG OCC,THERMAL ZONE: HALL-1-7,380.73,20.5,20.5,5.382E-002,18.581,0.300,0.700,AutoCalculate,LARGE OFFICE ACTIVITY,No,3.8200E-008,0,20
 People Internal Gains Nominal, HALL-1-8 189.1-2009 - OFFICE - WHOLEBUILDING - LG OFFICE - CZ4-8 PEOPLE,LARGE OFFICE BLDG OCC,THERMAL ZONE: HALL-1-8,258.83,13.9,13.9,5.382E-002,18.581,0.300,0.700,AutoCalculate,LARGE OFFICE ACTIVITY,No,3.8200E-008,0,14
 People Internal Gains Nominal, HALL-4-4 189.1-2009 - OFFICE - WHOLEBUILDING - LG OFFICE - CZ4-8 PEOPLE,LARGE OFFICE BLDG OCC,THERMAL ZONE: HALL-4-4,370.59,19.9,19.9,5.382E-002,18.581,0.300,0.700,AutoCalculate,LARGE OFFICE ACTIVITY,No,3.8200E-008,0,20
 People Internal Gains Nominal, HALL-4-3 189.1-2009 - OFFICE - WHOLEBUILDING - LG OFFICE - CZ4-8 PEOPLE,LARGE OFFICE BLDG OCC,THERMAL ZONE: HALL-4-3,388.82,20.9,20.9,5.382E-002,18.581,0.300,0.700,AutoCalculate,LARGE OFFICE ACTIVITY,No,3.8200E-008,0,21
 People Internal Gains Nominal, HALL-4-2 189.1-2009 - OFFICE - WHOLEBUILDING - LG OFFICE - CZ4-8 PEOPLE,LARGE OFFICE BLDG OCC,THERMAL ZONE: HALL-4-2,519.36,28.0,28.0,5.382E-002,18.581,0.300,0.700,AutoCalculate,LARGE OFFICE ACTIVITY,No,3.8200E-008,0,28
 People Internal Gains Nominal, HALL-4-1 189.1-2009 - OFFICE - WHOLEBUILDING - LG OFFICE - CZ4-8 PEOPLE,LARGE OFFICE BLDG OCC,THERMAL ZONE: HALL-4-1,588.44,31.7,31.7,5.382E-002,18.581,0.300,0.700,AutoCalculate,LARGE OFFICE ACTIVITY,No,3.8200E-008,0,32
 People Internal Gains Nominal, HALL-2-2 189.1-2009 - OFFICE - WHOLEBUILDING - LG OFFICE - CZ4-8 PEOPLE,LARGE OFFICE BLDG OCC,THERMAL ZONE: HALL-2-2,740.03,39.8,39.8,5.382E-002,18.581,0.300,0.700,AutoCalculate,LARGE OFFICE ACTIVITY,No,3.8200E-008,0,40
 People Internal Gains Nominal, HALL-3-1 189.1-2009 - OFFICE - WHOLEBUILDING - LG OFFICE - CZ4-8 PEOPLE,LARGE OFFICE BLDG OCC,THERMAL ZONE: HALL-3-1,850.00,45.7,45.7,5.382E-002,18.581,0.300,0.700,AutoCalculate,LARGE OFFICE ACTIVITY,No,3.8200E-008,0,46
 People Internal Gains Nominal, HALL-3-2 189.1-2009 - OFFICE - WHOLEBUILDING - LG OFFICE - CZ4-8 PEOPLE,LARGE OFFICE BLDG OCC,THERMAL ZONE: HALL-3-2,175.00,9.4,9.4,5.382E-002,18.581,0.300,0.700,AutoCalculate,LARGE OFFICE ACTIVITY,No,3.8200E-008,0,9
 People Internal Gains Nominal, HALL-3-3 189.1-2009 - OFFICE - WHOLEBUILDING - LG OFFICE - CZ4-8 PEOPLE,LARGE OFFICE BLDG OCC,THERMAL ZONE: HALL-3-3,850.00,45.7,45.7,5.382E-002,18.581,0.300,0.700,AutoCalculate,LARGE OFFICE ACTIVITY,No,3.8200E-008,0,46
 People Internal Gains Nominal, P1-1-DINING 1 OFFICE DINING PEOPLE,OFFICELARGE BLDG_OCC_SCH,THERMAL ZONE: P1-1-DINING 1,143.81,15.5,15.5,0.108,9.290,0.300,0.700,AutoCalculate,OFFICEMEDIUM ACTIVITY_SCH,No,3.8200E-008,0,15
 People Internal Gains Nominal, P1-7-DINING 1 OFFICE DINING PEOPLE,OFFICELARGE BLDG_OCC_SCH,THERMAL ZONE: P1-7-DINING 1,35.96,3.9,3.9,0.108,9.290,0.300,0.700,AutoCalculate,OFFICEMEDIUM ACTIVITY_SCH,No,3.8200E-008,0,4
 People Internal Gains Nominal, P1-2-DINING 1 OFFICE DINING PEOPLE,OFFICELARGE BLDG_OCC_SCH,THERMAL ZONE: P1-2-DINING 1,43.53,4.7,4.7,0.108,9.290,0.300,0.700,AutoCalculate,OFFICEMEDIUM ACTIVITY_SCH,No,3.8200E-008,0,5
 People Internal Gains Nominal, P1-4-DINING 1 OFFICE DINING PEOPLE,OFFICELARGE BLDG_OCC_SCH,THERMAL ZONE: P1-4-DINING 1,53.02,5.7,5.7,0.108,9.290,0.300,0.700,AutoCalculate,OFFICEMEDIUM ACTIVITY_SCH,No,3.8200E-008,0,6
 People Internal Gains Nominal, P3-2-DINING 1 OFFICE DINING PEOPLE,OFFICELARGE BLDG_OCC_SCH,THERMAL ZONE: P3-2-DINING 1,50.00,5.4,5.4,0.108,9.290,0.300,0.700,AutoCalculate,OFFICEMEDIUM ACTIVITY_SCH,No,3.8200E-008,0,5
 People Internal Gains Nominal, P3-1-DINING 1 OFFICE DINING PEOPLE,OFFICELARGE BLDG_OCC_SCH,THERMAL ZONE: P3-1-DINING 1,100.00,10.8,10.8,0.108,9.290,0.300,0.700,AutoCalculate,OFFICEMEDIUM ACTIVITY_SCH,No,3.8200E-008,0,11
 People Internal Gains Nominal, P3-1-COMMERCE 1 RETAIL RETAIL PEOPLE,RETAILSTANDALONE BLDG_OCC_SCH,THERMAL ZONE: P3-1-COMMERCE 1,100.00,16.1,16.1,0.161,6.194,0.300,0.700,AutoCalculate,RETAILSTANDALONE ACTIVITY_SCH,No,3.8200E-008,0,16
 People Internal Gains Nominal, P2-1-COMMERCE 2 RETAIL RETAIL PEOPLE,RETAILSTANDALONE BLDG_OCC_SCH,THERMAL ZONE: P2-1-COMMERCE 2,40.85,6.6,6.6,0.161,6.194,0.300,0.700,AutoCalculate,RETAILSTANDALONE ACTIVITY_SCH,No,3.8200E-008,0,7
 People Internal Gains Nominal, P1-1-COMMERCE 1 RETAIL RETAIL PEOPLE,RETAILSTANDALONE BLDG_OCC_SCH,THERMAL ZONE: P1-1-COMMERCE 1,130.76,21.1,21.1,0.161,6.194,0.300,0.700,AutoCalculate,RETAILSTANDALONE ACTIVITY_SCH,No,3.8200E-008,0,21
 People Internal Gains Nominal, P1-11-COMMERCE 2 RETAIL RETAIL PEOPLE,RETAILSTANDALONE BLDG_OCC_SCH,THERMAL ZONE: P1-11-COMMERCE 2,87.19,14.1,14.1,0.161,6.194,0.300,0.700,AutoCalculate,RETAILSTANDALONE ACTIVITY_SCH,No,3.8200E-008,0,14
 People Internal Gains Nominal, P4-1-COMMERCE 1 RETAIL RETAIL PEOPLE,RETAILSTANDALONE BLDG_OCC_SCH,THERMAL ZONE: P4-1-COMMERCE 1,73.59,11.9,11.9,0.161,6.194,0.300,0.700,AutoCalculate,RETAILSTANDALONE ACTIVITY_SCH,No,3.8200E-008,0,12
 People Internal Gains Nominal, P1-11-COMMERCE 1 RETAIL RETAIL PEOPLE,RETAILSTANDALONE BLDG_OCC_SCH,THERMAL ZONE: P1-11-COMMERCE 1,75.13,12.1,12.1,0.161,6.194,0.300,0.700,AutoCalculate,RETAILSTANDALONE ACTIVITY_SCH,No,3.8200E-008,0,12
 People Internal Gains Nominal, P1-3-COMMERCE 1 RETAIL RETAIL PEOPLE,RETAILSTANDALONE BLDG_OCC_SCH,THERMAL ZONE: P1-3-COMMERCE 1,53.02,8.6,8.6,0.161,6.194,0.300,0.700,AutoCalculate,RETAILSTANDALONE ACTIVITY_SCH,No,3.8200E-008,0,9
 People Internal Gains Nominal, P2-1-COMMERCE 3 RETAIL RETAIL PEOPLE,RETAILSTANDALONE BLDG_OCC_SCH,THERMAL ZONE: P2-1-COMMERCE 3,46.01,7.4,7.4,0.161,6.194,0.300,0.700,AutoCalculate,RETAILSTANDALONE ACTIVITY_SCH,No,3.8200E-008,0,7
 People Internal Gains Nominal, P1-4-COMMERCE 1 RETAIL RETAIL PEOPLE,RETAILSTANDALONE BLDG_OCC_SCH,THERMAL ZONE: P1-4-COMMERCE 1,53.02,8.6,8.6,0.161,6.194,0.300,0.700,AutoCalculate,RETAILSTANDALONE ACTIVITY_SCH,No,3.8200E-008,0,9
 People Internal Gains Nominal, P4-2-COMMERCE 2 RETAIL RETAIL PEOPLE,RETAILSTANDALONE BLDG_OCC_SCH,THERMAL ZONE: P4-2-COMMERCE 2,36.81,5.9,5.9,0.161,6.194,0.300,0.700,AutoCalculate,RETAILSTANDALONE ACTIVITY_SCH,No,3.8200E-008,0,6
 People Internal Gains Nominal, P1-9-COMMERCE 1 RETAIL RETAIL PEOPLE,RETAILSTANDALONE BLDG_OCC_SCH,THERMAL ZONE: P1-9-COMMERCE 1,45.00,7.3,7.3,0.161,6.194,0.300,0.700,AutoCalculate,RETAILSTANDALONE ACTIVITY_SCH,No,3.8200E-008,0,7
 People Internal Gains Nominal, P4-2-COMMERCE 1 RETAIL RETAIL PEOPLE,RETAILSTANDALONE BLDG_OCC_SCH,THERMAL ZONE: P4-2-COMMERCE 1,46.18,7.5,7.5,0.161,6.194,0.300,0.700,AutoCalculate,RETAILSTANDALONE ACTIVITY_SCH,No,3.8200E-008,0,7
 People Internal Gains Nominal, P1-5-COMMERCE 1 RETAIL RETAIL PEOPLE,RETAILSTANDALONE BLDG_OCC_SCH,THERMAL ZONE: P1-5-COMMERCE 1,70.18,11.3,11.3,0.161,6.194,0.300,0.700,AutoCalculate,RETAILSTANDALONE ACTIVITY_SCH,No,3.8200E-008,0,11
 People Internal Gains Nominal, P1-6-COMMERCE 1 RETAIL RETAIL PEOPLE,RETAILSTANDALONE BLDG_OCC_SCH,THERMAL ZONE: P1-6-COMMERCE 1,101.96,16.5,16.5,0.161,6.194,0.300,0.700,AutoCalculate,RETAILSTANDALONE ACTIVITY_SCH,No,3.8200E-008,0,16
 People Internal Gains Nominal, P4-3-COMMERCE 2 RETAIL RETAIL PEOPLE,RETAILSTANDALONE BLDG_OCC_SCH,THERMAL ZONE: P4-3-COMMERCE 2,23.98,3.9,3.9,0.161,6.194,0.300,0.700,AutoCalculate,RETAILSTANDALONE ACTIVITY_SCH,No,3.8200E-008,0,4
 People Internal Gains Nominal, P4-3-COMMERCE 1 RETAIL RETAIL PEOPLE,RETAILSTANDALONE BLDG_OCC_SCH,THERMAL ZONE: P4-3-COMMERCE 1,27.24,4.4,4.4,0.161,6.194,0.300,0.700,AutoCalculate,RETAILSTANDALONE ACTIVITY_SCH,No,3.8200E-008,0,4
! <Lights Internal Gains Nominal>,Name,Schedule Name,Zone Name,Zone Floor Area {m2},# Zone Occupants,Lighting Level {W},Lights/Floor Area {W/m2},Lights per person {W/person},Fraction Return Air,Fraction Radiant,Fraction Short Wave,Fraction Convected,Fraction Replaceable,End-Use Category,Nominal Minimum Lighting Level {W},Nominal Maximum Lighting Level {W}
 Lights Internal Gains Nominal, P1-11-OFFICE 1 189.1-2009 - OFFICE - CLOSEDOFFICE - CZ4-8 LIGHTS 1,OFFICE BLDG LIGHT,THERMAL ZONE: P1-11-OFFICE 1,51.03,2.6,543.755,10.656,208.421,0.000,0.000,0.000,1.000,1.000,General,0.000,543.755
 Lights Internal Gains Nominal, P1-1-OFFICE 1 189.1-2009 - OFFICE - CLOSEDOFFICE - CZ4-8 LIGHTS 1,OFFICE BLDG LIGHT,THERMAL ZONE: P1-1-OFFICE 1,109.77,5.6,1169.726,10.656,208.421,0.000,0.000,0.000,1.000,1.000,General,0.000,1169.726
 Lights Internal Gains Nominal, P1-1-OFFICE 2 189.1-2009 - OFFICE - CLOSEDOFFICE - CZ4-8 LIGHTS 1,OFFICE BLDG LIGHT,THERMAL ZONE: P1-1-OFFICE 2,97.72,5.0,1041.280,10.656,208.421,0.000,0.000,0.000,1.000,1.000,General,0.000,1041.280
 Lights Internal Gains Nominal, P1-11-OFFICE 2 189.1-2009 - OFFICE - CLOSEDOFFICE - CZ4-8 LIGHTS 1,OFFICE BLDG LIGHT,THERMAL ZONE: P1-11-OFFICE 2,63.08,3.2,672.201,10.656,208.421,0.000,0.000,0.000,1.000,1.000,General,0.000,672.201
 Lights Internal Gains Nominal, P1-7-OFFICE 1 189.1-2009 - OFFICE - CLOSEDOFFICE - CZ4-8 LIGHTS 1,OFFICE BLDG LIGHT,THERMAL ZONE: P1-7-OFFICE 1,50.44,2.6,537.531,10.656,208.421,0.000,0.000,0.000,1.000,1.000,General,0.000,537.531
 Lights Internal Gains Nominal, P1-2-RESTROOM 1 189.1-2009 - OFFICE - RESTROOM - CZ4-8 LIGHTS,OFFICE BLDG LIGHT,THERMAL ZONE: P1-2-RESTROOM 1,148.44,16.0,1294.192,8.719,81.000,0.000,0.000,0.000,1.000,1.000,General,0.000,1294.192
 Lights Internal Gains Nominal, P1-10-RESTROOM 1 189.1-2009 - OFFICE - RESTROOM - CZ4-8 LIGHTS,OFFICE BLDG LIGHT,THERMAL ZONE: P1-10-RESTROOM 1,135.00,14.5,1177.034,8.719,81.000,0.000,0.000,0.000,1.000,1.000,General,0.000,1177.034
 Lights Internal Gains Nominal, P1-8-RESTROOM 1 189.1-2009 - OFFICE - RESTROOM - CZ4-8 LIGHTS,OFFICE BLDG LIGHT,THERMAL ZONE: P1-8-RESTROOM 1,154.55,16.6,1347.459,8.719,81.000,0.000,0.000,0.000,1.000,1.000,General,0.000,1347.459
 Lights Internal Gains Nominal, P2-2-RESTROOM 1 189.1-2009 - OFFICE - RESTROOM - CZ4-8 LIGHTS,OFFICE BLDG LIGHT,THERMAL ZONE: P2-2-RESTROOM 1,183.73,19.8,1601.869,8.719,81.000,0.000,0.000,0.000,1.000,1.000,General,0.000,1601.869
 Lights Internal Gains Nominal, P3-2-RESTROOM 1 189.1-2009 - OFFICE - RESTROOM - CZ4-8 LIGHTS,OFFICE BLDG LIGHT,THERMAL ZONE: P3-2-RESTROOM 1,150.00,16.1,1307.815,8.719,81.000,0.000,0.000,0.000,1.000,1.000,General,0.000,1307.815
 Lights Internal Gains Nominal, HALL-1-1 189.1-2009 - OFFICE - WHOLEBUILDING - LG OFFICE - CZ4-8 LIGHTS,LARGE OFFICE BLDG LIGHT,THERMAL ZONE: HALL-1-1,585.12,31.5,5668.397,9.688,180.000,0.000,0.000,0.000,1.000,1.000,General,0.000,5668.397
 Lights Internal Gains Nominal, HALL-1-13 189.1-2009 - OFFICE - WHOLEBUILDING - LG OFFICE - CZ4-8 LIGHTS,LARGE OFFICE BLDG LIGHT,THERMAL ZONE: HALL-1-13,1437.61,77.4,13926.904,9.688,180.000,0.000,0.000,0.000,1.000,1.000,General,0.000,13926.904
 Lights Internal Gains Nominal, HALL-1-12 189.1-2009 - OFFICE - WHOLEBUILDING - LG OFFICE - CZ4-8 LIGHTS,LARGE OFFICE BLDG LIGHT,THERMAL ZONE: HALL-1-12,1456.65,78.4,14111.362,9.688,180.000,0.000,0.000,0.000,1.000,1.000,General,0.000,14111.362
 Lights Internal Gains Nominal, HALL-2-3 189.1-2009 - OFFICE - WHOLEBUILDING - LG OFFICE - CZ4-8 LIGHTS,LARGE OFFICE BLDG LIGHT,THERMAL ZONE: HALL-2-3,726.47,39.1,7037.711,9.688,180.000,0.000,0.000,0.000,1.000,1.000,General,0.000,7037.711
 Lights Internal Gains Nominal, HALL-1-2 189.1-2009 - OFFICE - WHOLEBUILDING - LG OFFICE - CZ4-8 LIGHTS,LARGE OFFICE BLDG LIGHT,THERMAL ZONE: HALL-1-2,694.49,37.4,6727.922,9.688,180.000,0.000,0.000,0.000,1.000,1.000,General,0.000,6727.922
 Lights Internal Gains Nominal, HALL-1-9 189.1-2009 - OFFICE - WHOLEBUILDING - LG OFFICE - CZ4-8 LIGHTS,LARGE OFFICE BLDG LIGHT,THERMAL ZONE: HALL-1-9,465.21,25.0,4506.694,9.688,180.000,0.000,0.000,0.000,1.000,1.000,General,0.000,4506.694
 Lights Internal Gains Nominal, HALL-1-6 189.1-2009 - OFFICE - WHOLEBUILDING - LG OFFICE - CZ4-8 LIGHTS,LARGE OFFICE BLDG LIGHT,THERMAL ZONE: HALL-1-6,393.84,21.2,3815.375,9.688,180.000,0.000,0.000,0.000,1.000,1.000,General,0.000,3815.375
 Lights Internal Gains Nominal, P1-2-BREAKROOM 1 189.1-2009 - OFFICE - WHOLEBUILDING - LG OFFICE - CZ4-8 LIGHTS,LARGE OFFICE BLDG LIGHT,THERMAL ZONE: P1-2-BREAKROOM 1,26.56,1.4,257.325,9.688,180.000,0.000,0.000,0.000,1.000,1.000,General,0.000,257.325
 Lights Internal Gains Nominal, HALL-1-11 189.1-2009 - OFFICE - WHOLEBUILDING - LG OFFICE - CZ4-8 LIGHTS,LARGE OFFICE BLDG LIGHT,THERMAL ZONE: HALL-1-11,236.48,12.7,2290.893,9.688,180.000,0.000,0.000,0.000,1.000,1.000,General,0.000,2290.893
 Lights Internal Gains Nominal, HALL-1-3 189.1-2009 - OFFICE - WHOLEBUILDING - LG OFFICE - CZ4-8 LIGHTS,LARGE OFFICE BLDG LIGHT,THERMAL ZONE: HALL-1-3,758.96,40.8,7352.410,9.688,180.000,0.000,0.000,0.000,1.000,1.000,General,0.000,7352.410
 Lights Internal Gains Nominal, HALL-1-4 189.1-2009 - OFFICE - WHOLEBUILDING - LG OFFICE - CZ4-8 LIGHTS,LARGE OFFICE BLDG LIGHT,THERMAL ZONE: HALL-1-4,390.17,21.0,3779.760,9.688,180.000,0.000,0.000,0.000,1.000,1.000,General,0.000,3779.760
 Lights Internal Gains Nominal, HALL-2-1 189.1-2009 - OFFICE - WHOLEBUILDING - LG OFFICE - CZ4-8 LIGHTS,LARGE OFFICE BLDG LIGHT,THERMAL ZONE: HALL-2-1,337.92,18.2,3273.580,9.688,180.000,0.000,0.000,0.000,1.000,1.000,General,0.000,3273.580
 Lights Internal Gains Nominal, HALL-1-10 189.1-2009 - OFFICE - WHOLEBUILDING - LG OFFICE - CZ4-8 LIGHTS,LARGE OFFICE BLDG LIGHT,THERMAL ZONE: HALL-1-10,924.32,49.7,8954.394,9.688,180.000,0.000,0.000,0.000,1.000,1.000,General,0.000,8954.394
 Lights Internal Gains Nominal, HALL-1-5 189.1-2009 - OFFICE - WHOLEBUILDING - LG OFFICE - CZ4-8 LIGHTS,LARGE OFFICE BLDG LIGHT,THERMAL ZONE: HALL-1-5,550.93,29.7,5337.103,9.688,180.000,0.000,0.000,0.000,1.000,1.000,General,0.000,5337.103
 Lights Internal Gains Nominal, HALL-1-7 189.1-2009 - OFFICE - WHOLEBUILDING - LG OFFICE - CZ4-8 LIGHTS,LARGE OFFICE BLDG LIGHT,THERMAL ZONE: HALL-1-7,380.73,20.5,3688.370,9.688,180.000,0.000,0.000,0.000,1.000,1.000,General,0.000,3688.370
 Lights Internal Gains Nominal, HALL-1-8 189.1-2009 - OFFICE - WHOLEBUILDING - LG OFFICE - CZ4-8 LIGHTS,LARGE OFFICE BLDG LIGHT,THERMAL ZONE: HALL-1-8,258.83,13.9,2507.392,9.688,180.000,0.000,0.000,0.000,1.000,1.000,General,0.000,2507.392
 Lights Internal Gains Nominal, HALL-4-4 189.1-2009 - OFFICE - WHOLEBUILDING - LG OFFICE - CZ4-8 LIGHTS,LARGE OFFICE BLDG LIGHT,THERMAL ZONE: HALL-4-4,370.59,19.9,3590.101,9.688,180.000,0.000,0.000,0.000,1.000,1.000,General,0.000,3590.101
 Lights Internal Gains Nominal, HALL-4-3 189.1-2009 - OFFICE - WHOLEBUILDING - LG OFFICE - CZ4-8 LIGHTS,LARGE OFFICE BLDG LIGHT,THERMAL ZONE: HALL-4-3,388.82,20.9,3766.668,9.688,180.000,0.000,0.000,0.000,1.000,1.000,General,0.000,3766.668
 Lights Internal Gains Nominal, HALL-4-2 189.1-2009 - OFFICE - WHOLEBUILDING - LG OFFICE - CZ4-8 LIGHTS,LARGE OFFICE BLDG LIGHT,THERMAL ZONE: HALL-4-2,519.36,28.0,5031.300,9.688,180.000,0.000,0.000,0.000,1.000,1.000,General,0.000,5031.300
 Lights Internal Gains Nominal, HALL-4-1 189.1-2009 - OFFICE - WHOLEBUILDING - LG OFFICE - CZ4-8 LIGHTS,LARGE OFFICE BLDG LIGHT,THERMAL ZONE: HALL-4-1,588.44,31.7,5700.510,9.688,180.000,0.000,0.000,0.000,1.000,1.000,General,0.000,5700.510
 Lights Internal Gains Nominal, HALL-2-2 189.1-2009 - OFFICE - WHOLEBUILDING - LG OFFICE - CZ4-8 LIGHTS,LARGE OFFICE BLDG LIGHT,THERMAL ZONE: HALL-2-2,740.03,39.8,7169.038,9.688,180.000,0.000,0.000,0.000,1.000,1.000,General,0.000,7169.038
 Lights Internal Gains Nominal, HALL-3-1 189.1-2009 - OFFICE - WHOLEBUILDING - LG OFFICE - CZ4-8 LIGHTS,LARGE OFFICE BLDG LIGHT,THERMAL ZONE: HALL-3-1,850.00,45.7,8234.391,9.688,180.000,0.000,0.000,0.000,1.000,1.000,General,0.000,8234.391
 Lights Internal Gains Nominal, HALL-3-2 189.1-2009 - OFFICE - WHOLEBUILDING - LG OFFICE - CZ4-8 LIGHTS,LARGE OFFICE BLDG LIGHT,THERMAL ZONE: HALL-3-2,175.00,9.4,1695.316,9.688,180.000,0.000,0.000,0.000,1.000,1.000,General,0.000,1695.316
 Lights Internal Gains Nominal, HALL-3-3 189.1-2009 - OFFICE - WHOLEBUILDING - LG OFFICE - CZ4-8 LIGHTS,LARGE OFFICE BLDG LIGHT,THERMAL ZONE: HALL-3-3,850.00,45.7,8234.391,9.688,180.000,0.000,0.000,0.000,1.000,1.000,General,0.000,8234.391
 Lights Internal Gains Nominal, P1-1-DINING 1 OFFICE DINING LIGHTS,OFFICELARGE BLDG_LIGHT_SCH,THERMAL ZONE: P1-1-DINING 1,143.81,15.5,1393.193,9.688,90.000,0.400,0.400,0.200,0.000,1.000,General,0.000,1393.193
 Lights Internal Gains Nominal, P1-7-DINING 1 OFFICE DINING LIGHTS,OFFICELARGE BLDG_LIGHT_SCH,THERMAL ZONE: P1-7-DINING 1,35.96,3.9,348.316,9.688,90.000,0.400,0.400,0.200,0.000,1.000,General,0.000,348.316
 Lights Internal Gains Nominal, P1-2-DINING 1 OFFICE DINING LIGHTS,OFFICELARGE BLDG_LIGHT_SCH,THERMAL ZONE: P1-2-DINING 1,43.53,4.7,421.667,9.688,90.000,0.400,0.400,0.200,0.000,1.000,General,0.000,421.667
 Lights Internal Gains Nominal, P1-4-DINING 1 OFFICE DINING LIGHTS,OFFICELARGE BLDG_LIGHT_SCH,THERMAL ZONE: P1-4-DINING 1,53.02,5.7,513.611,9.688,90.000,0.400,0.400,0.200,0.000,1.000,General,0.000,513.611
 Lights Internal Gains Nominal, P3-2-DINING 1 OFFICE DINING LIGHTS,OFFICELARGE BLDG_LIGHT_SCH,THERMAL ZONE: P3-2-DINING 1,50.00,5.4,484.376,9.688,90.000,0.400,0.400,0.200,0.000,1.000,General,0.000,484.376
 Lights Internal Gains Nominal, P3-1-DINING 1 OFFICE DINING LIGHTS,OFFICELARGE BLDG_LIGHT_SCH,THERMAL ZONE: P3-1-DINING 1,100.00,10.8,968.752,9.688,90.000,0.400,0.400,0.200,0.000,1.000,General,0.000,968.752
 Lights Internal Gains Nominal, P3-1-COMMERCE 1 RETAIL RETAIL LIGHTS,RETAILSTANDALONE BLDG_LIGHT_SCH,THERMAL ZONE: P3-1-COMMERCE 1,100.00,16.1,1829.865,18.299,113.333,0.000,0.700,0.200,0.100,1.000,General,0.000,1829.865
 Lights Internal Gains Nominal, P2-1-COMMERCE 2 RETAIL RETAIL LIGHTS,RETAILSTANDALONE BLDG_LIGHT_SCH,THERMAL ZONE: P2-1-COMMERCE 2,40.85,6.6,747.481,18.299,113.333,0.000,0.700,0.200,0.100,1.000,General,0.000,747.481
 Lights Internal Gains Nominal, P1-1-COMMERCE 1 RETAIL RETAIL LIGHTS,RETAILSTANDALONE BLDG_LIGHT_SCH,THERMAL ZONE: P1-1-COMMERCE 1,130.76,21.1,2392.689,18.299,113.333,0.000,0.700,0.200,0.100,1.000,General,0.000,2392.689
 Lights Internal Gains Nominal, P1-11-COMMERCE 2 RETAIL RETAIL LIGHTS,RETAILSTANDALONE BLDG_LIGHT_SCH,THERMAL ZONE: P1-11-COMMERCE 2,87.19,14.1,1595.413,18.299,113.333,0.000,0.700,0.200,0.100,1.000,General,0.000,1595.413
 Lights Internal Gains Nominal, P4-1-COMMERCE 1 RETAIL RETAIL LIGHTS,RETAILSTANDALONE BLDG_LIGHT_SCH,THERMAL ZONE: P4-1-COMMERCE 1,73.59,11.9,1346.561,18.299,113.333,0.000,0.700,0.200,0.100,1.000,General,0.000,1346.561
 Lights Internal Gains Nominal, P1-11-COMMERCE 1 RETAIL RETAIL LIGHTS,RETAILSTANDALONE BLDG_LIGHT_SCH,THERMAL ZONE: P1-11-COMMERCE 1,75.13,12.1,1374.849,18.299,113.333,0.000,0.700,0.200,0.100,1.000,General,0.000,1374.849
 Lights Internal Gains Nominal, P1-3-COMMERCE 1 RETAIL RETAIL LIGHTS,RETAILSTANDALONE BLDG_LIGHT_SCH,THERMAL ZONE: P1-3-COMMERCE 1,53.02,8.6,970.155,18.299,113.333,0.000,0.700,0.200,0.100,1.000,General,0.000,970.155
 Lights Internal Gains Nominal, P2-1-COMMERCE 3 RETAIL RETAIL LIGHTS,RETAILSTANDALONE BLDG_LIGHT_SCH,THERMAL ZONE: P2-1-COMMERCE 3,46.01,7.4,841.868,18.299,113.333,0.000,0.700,0.200,0.100,1.000,General,0.000,841.868
 Lights Internal Gains Nominal, P1-4-COMMERCE 1 RETAIL RETAIL LIGHTS,RETAILSTANDALONE BLDG_LIGHT_SCH,THERMAL ZONE: P1-4-COMMERCE 1,53.02,8.6,970.155,18.299,113.333,0.000,0.700,0.200,0.100,1.000,General,0.000,970.155
 Lights Internal Gains Nominal, P4-2-COMMERCE 2 RETAIL RETAIL LIGHTS,RETAILSTANDALONE BLDG_LIGHT_SCH,THERMAL ZONE: P4-2-COMMERCE 2,36.81,5.9,673.554,18.299,113.333,0.000,0.700,0.200,0.100,1.000,General,0.000,673.554
 Lights Internal Gains Nominal, P1-9-COMMERCE 1 RETAIL RETAIL LIGHTS,RETAILSTANDALONE BLDG_LIGHT_SCH,THERMAL ZONE: P1-9-COMMERCE 1,45.00,7.3,823.439,18.299,113.333,0.000,0.700,0.200,0.100,1.000,General,0.000,823.439
 Lights Internal Gains Nominal, P4-2-COMMERCE 1 RETAIL RETAIL LIGHTS,RETAILSTANDALONE BLDG_LIGHT_SCH,THERMAL ZONE: P4-2-COMMERCE 1,46.18,7.5,844.978,18.299,113.333,0.000,0.700,0.200,0.100,1.000,General,0.000,844.978
 Lights Internal Gains Nominal, P1-5-COMMERCE 1 RETAIL RETAIL LIGHTS,RETAILSTANDALONE BLDG_LIGHT_SCH,THERMAL ZONE: P1-5-COMMERCE 1,70.18,11.3,1284.278,18.299,113.333,0.000,0.700,0.200,0.100,1.000,General,0.000,1284.278
 Lights Internal Gains Nominal, P1-6-COMMERCE 1 RETAIL RETAIL LIGHTS,RETAILSTANDALONE BLDG_LIGHT_SCH,THERMAL ZONE: P1-6-COMMERCE 1,101.96,16.5,1865.711,18.299,113.333,0.000,0.700,0.200,0.100,1.000,General,0.000,1865.711
 Lights Internal Gains Nominal, P4-3-COMMERCE 2 RETAIL RETAIL LIGHTS,RETAILSTANDALONE BLDG_LIGHT_SCH,THERMAL ZONE: P4-3-COMMERCE 2,23.98,3.9,438.847,18.299,113.333,0.000,0.700,0.200,0.100,1.000,General,0.000,438.847
 Lights Internal Gains Nominal, P4-3-COMMERCE 1 RETAIL RETAIL LIGHTS,RETAILSTANDALONE BLDG_LIGHT_SCH,THERMAL ZONE: P4-3-COMMERCE 1,27.24,4.4,498.438,18.299,113.333,0.000,0.700,0.200,0.100,1.000,General,0.000,498.438
! <ElectricEquipment Internal Gains Nominal>,Name,Schedule Name,Zone Name,Zone Floor Area {m2},# Zone Occupants,Equipment Level {W},Equipment/Floor Area {W/m2},Equipment per person {W/person},Fraction Latent,Fraction Radiant,Fraction Lost,Fraction Convected,End-Use SubCategory,Nominal Minimum Equipment Level {W},Nominal Maximum Equipment Level {W}
 ElectricEquipment Internal Gains Nominal, P1-11-OFFICE 1 189.1-2009 - OFFICE - CLOSEDOFFICE - CZ4-8 ELECTRIC EQUIPMENT 1,OFFICE BLDG EQUIP,THERMAL ZONE: P1-11-OFFICE 1,51.03,2.6,351.519,6.889,134.737,0.000,0.000,0.000,1.000,General,0.000,351.519
 ElectricEquipment Internal Gains Nominal, P1-1-OFFICE 1 189.1-2009 - OFFICE - CLOSEDOFFICE - CZ4-8 ELECTRIC EQUIPMENT 1,OFFICE BLDG EQUIP,THERMAL ZONE: P1-1-OFFICE 1,109.77,5.6,756.186,6.889,134.737,0.000,0.000,0.000,1.000,General,0.000,756.186
 ElectricEquipment Internal Gains Nominal, P1-1-OFFICE 2 189.1-2009 - OFFICE - CLOSEDOFFICE - CZ4-8 ELECTRIC EQUIPMENT 1,OFFICE BLDG EQUIP,THERMAL ZONE: P1-1-OFFICE 2,97.72,5.0,673.150,6.889,134.737,0.000,0.000,0.000,1.000,General,0.000,673.150
 ElectricEquipment Internal Gains Nominal, P1-11-OFFICE 2 189.1-2009 - OFFICE - CLOSEDOFFICE - CZ4-8 ELECTRIC EQUIPMENT 1,OFFICE BLDG EQUIP,THERMAL ZONE: P1-11-OFFICE 2,63.08,3.2,434.554,6.889,134.737,0.000,0.000,0.000,1.000,General,0.000,434.554
 ElectricEquipment Internal Gains Nominal, P1-7-OFFICE 1 189.1-2009 - OFFICE - CLOSEDOFFICE - CZ4-8 ELECTRIC EQUIPMENT 1,OFFICE BLDG EQUIP,THERMAL ZONE: P1-7-OFFICE 1,50.44,2.6,347.495,6.889,134.737,0.000,0.000,0.000,1.000,General,0.000,347.495
 ElectricEquipment Internal Gains Nominal, P1-2-RESTROOM 1 189.1-2009 - OFFICE - RESTROOM - CZ4-8 ELECTRIC EQUIPMENT,OFFICE BLDG EQUIP,THERMAL ZONE: P1-2-RESTROOM 1,148.44,16.0,111.844,0.753,7.000,0.000,0.000,0.000,1.000,General,0.000,111.844
 ElectricEquipment Internal Gains Nominal, P1-10-RESTROOM 1 189.1-2009 - OFFICE - RESTROOM - CZ4-8 ELECTRIC EQUIPMENT,OFFICE BLDG EQUIP,THERMAL ZONE: P1-10-RESTROOM 1,135.00,14.5,101.719,0.753,7.000,0.000,0.000,0.000,1.000,General,0.000,101.719
 ElectricEquipment Internal Gains Nominal, P1-8-RESTROOM 1 189.1-2009 - OFFICE - RESTROOM - CZ4-8 ELECTRIC EQUIPMENT,OFFICE BLDG EQUIP,THERMAL ZONE: P1-8-RESTROOM 1,154.55,16.6,116.447,0.753,7.000,0.000,0.000,0.000,1.000,General,0.000,116.447
 ElectricEquipment Internal Gains Nominal, P2-2-RESTROOM 1 189.1-2009 - OFFICE - RESTROOM - CZ4-8 ELECTRIC EQUIPMENT,OFFICE BLDG EQUIP,THERMAL ZONE: P2-2-RESTROOM 1,183.73,19.8,138.433,0.753,7.000,0.000,0.000,0.000,1.000,General,0.000,138.433
 ElectricEquipment Internal Gains Nominal, P3-2-RESTROOM 1 189.1-2009 - OFFICE - RESTROOM - CZ4-8 ELECTRIC EQUIPMENT,OFFICE BLDG EQUIP,THERMAL ZONE: P3-2-RESTROOM 1,150.00,16.1,113.021,0.753,7.000,0.000,0.000,0.000,1.000,General,0.000,113.021
 ElectricEquipment Internal Gains Nominal, HALL-1-1 189.1-2009 - OFFICE - WHOLEBUILDING - LG OFFICE - CZ4-8 ELECTRIC EQUIPMENT,LARGE OFFICE BLDG EQUIP,THERMAL ZONE: HALL-1-1,585.12,31.5,3401.040,5.813,108.000,0.000,0.000,0.000,1.000,General,0.000,3401.040
 ElectricEquipment Internal Gains Nominal, HALL-1-13 189.1-2009 - OFFICE - WHOLEBUILDING - LG OFFICE - CZ4-8 ELECTRIC EQUIPMENT,LARGE OFFICE BLDG EQUIP,THERMAL ZONE: HALL-1-13,1437.61,77.4,8356.146,5.813,108.000,0.000,0.000,0.000,1.000,General,0.000,8356.146
 ElectricEquipment Internal Gains Nominal, HALL-1-12 189.1-2009 - OFFICE - WHOLEBUILDING - LG OFFICE - CZ4-8 ELECTRIC EQUIPMENT,LARGE OFFICE BLDG EQUIP,THERMAL ZONE: HALL-1-12,1456.65,78.4,8466.821,5.813,108.000,0.000,0.000,0.000,1.000,General,0.000,8466.821
 ElectricEquipment Internal Gains Nominal, HALL-2-3 189.1-2009 - OFFICE - WHOLEBUILDING - LG OFFICE - CZ4-8 ELECTRIC EQUIPMENT,LARGE OFFICE BLDG EQUIP,THERMAL ZONE: HALL-2-3,726.47,39.1,4222.628,5.813,108.000,0.000,0.000,0.000,1.000,General,0.000,4222.628
 ElectricEquipment Internal Gains Nominal, HALL-1-2 189.1-2009 - OFFICE - WHOLEBUILDING - LG OFFICE - CZ4-8 ELECTRIC EQUIPMENT,LARGE OFFICE BLDG EQUIP,THERMAL ZONE: HALL-1-2,694.49,37.4,4036.755,5.813,108.000,0.000,0.000,0.000,1.000,General,0.000,4036.755
 ElectricEquipment Internal Gains Nominal, HALL-1-9 189.1-2009 - OFFICE - WHOLEBUILDING - LG OFFICE - CZ4-8 ELECTRIC EQUIPMENT,LARGE OFFICE BLDG EQUIP,THERMAL ZONE: HALL-1-9,465.21,25.0,2704.017,5.813,108.000,0.000,0.000,0.000,1.000,General,0.000,2704.017
 ElectricEquipment Internal Gains Nominal, HALL-1-6 189.1-2009 - OFFICE - WHOLEBUILDING - LG OFFICE - CZ4-8 ELECTRIC EQUIPMENT,LARGE OFFICE BLDG EQUIP,THERMAL ZONE: HALL-1-6,393.84,21.2,2289.226,5.813,108.000,0.000,0.000,0.000,1.000,General,0.000,2289.226
 ElectricEquipment Internal Gains Nominal, P1-2-BREAKROOM 1 189.1-2009 - OFFICE - WHOLEBUILDING - LG OFFICE - CZ4-8 ELECTRIC EQUIPMENT,LARGE OFFICE BLDG EQUIP,THERMAL ZONE: P1-2-BREAKROOM 1,26.56,1.4,154.395,5.813,108.000,0.000,0.000,0.000,1.000,General,0.000,154.395
 ElectricEquipment Internal Gains Nominal, HALL-1-11 189.1-2009 - OFFICE - WHOLEBUILDING - LG OFFICE - CZ4-8 ELECTRIC EQUIPMENT,LARGE OFFICE BLDG EQUIP,THERMAL ZONE: HALL-1-11,236.48,12.7,1374.536,5.813,108.000,0.000,0.000,0.000,1.000,General,0.000,1374.536
 ElectricEquipment Internal Gains Nominal, HALL-1-3 189.1-2009 - OFFICE - WHOLEBUILDING - LG OFFICE - CZ4-8 ELECTRIC EQUIPMENT,LARGE OFFICE BLDG EQUIP,THERMAL ZONE: HALL-1-3,758.96,40.8,4411.448,5.813,108.000,0.000,0.000,0.000,1.000,General,0.000,4411.448
 ElectricEquipment Internal Gains Nominal, HALL-1-4 189.1-2009 - OFFICE - WHOLEBUILDING - LG OFFICE - CZ4-8 ELECTRIC EQUIPMENT,LARGE OFFICE BLDG EQUIP,THERMAL ZONE: HALL-1-4,390.17,21.0,2267.857,5.813,108.000,0.000,0.000,0.000,1.000,General,0.000,2267.857
 ElectricEquipment Internal Gains Nominal, HALL-2-1 189.1-2009 - OFFICE - WHOLEBUILDING - LG OFFICE - CZ4-8 ELECTRIC EQUIPMENT,LARGE OFFICE BLDG EQUIP,THERMAL ZONE: HALL-2-1,337.92,18.2,1964.149,5.813,108.000,0.000,0.000,0.000,1.000,General,0.000,1964.149
 ElectricEquipment Internal Gains Nominal, HALL-1-10 189.1-2009 - OFFICE - WHOLEBUILDING - LG OFFICE - CZ4-8 ELECTRIC EQUIPMENT,LARGE OFFICE BLDG EQUIP,THERMAL ZONE: HALL-1-10,924.32,49.7,5372.639,5.813,108.000,0.000,0.000,0.000,1.000,General,0.000,5372.639
 ElectricEquipment Internal Gains Nominal, HALL-1-5 189.1-2009 - OFFICE - WHOLEBUILDING - LG OFFICE - CZ4-8 ELECTRIC EQUIPMENT,LARGE OFFICE BLDG EQUIP,THERMAL ZONE: HALL-1-5,550.93,29.7,3202.263,5.813,108.000,0.000,0.000,0.000,1.000,General,0.000,3202.263
 ElectricEquipment Internal Gains Nominal, HALL-1-7 189.1-2009 - OFFICE - WHOLEBUILDING - LG OFFICE - CZ4-8 ELECTRIC EQUIPMENT,LARGE OFFICE BLDG EQUIP,THERMAL ZONE: HALL-1-7,380.73,20.5,2213.023,5.813,108.000,0.000,0.000,0.000,1.000,General,0.000,2213.023
 ElectricEquipment Internal Gains Nominal, HALL-1-8 189.1-2009 - OFFICE - WHOLEBUILDING - LG OFFICE - CZ4-8 ELECTRIC EQUIPMENT,LARGE OFFICE BLDG EQUIP,THERMAL ZONE: HALL-1-8,258.83,13.9,1504.436,5.813,108.000,0.000,0.000,0.000,1.000,General,0.000,1504.436
 ElectricEquipment Internal Gains Nominal, HALL-4-4 189.1-2009 - OFFICE - WHOLEBUILDING - LG OFFICE - CZ4-8 ELECTRIC EQUIPMENT,LARGE OFFICE BLDG EQUIP,THERMAL ZONE: HALL-4-4,370.59,19.9,2154.061,5.813,108.000,0.000,0.000,0.000,1.000,General,0.000,2154.061
 ElectricEquipment Internal Gains Nominal, HALL-4-3 189.1-2009 - OFFICE - WHOLEBUILDING - LG OFFICE - CZ4-8 ELECTRIC EQUIPMENT,LARGE OFFICE BLDG EQUIP,THERMAL ZONE: HALL-4-3,388.82,20.9,2260.002,5.813,108.000,0.000,0.000,0.000,1.000,General,0.000,2260.002
 ElectricEquipment Internal Gains Nominal, HALL-4-2 189.1-2009 - OFFICE - WHOLEBUILDING - LG OFFICE - CZ4-8 ELECTRIC EQUIPMENT,LARGE OFFICE BLDG EQUIP,THERMAL ZONE: HALL-4-2,519.36,28.0,3018.781,5.813,108.000,0.000,0.000,0.000,1.000,General,0.000,3018.781
 ElectricEquipment Internal Gains Nominal, HALL-4-1 189.1-2009 - OFFICE - WHOLEBUILDING - LG OFFICE - CZ4-8 ELECTRIC EQUIPMENT,LARGE OFFICE BLDG EQUIP,THERMAL ZONE: HALL-4-1,588.44,31.7,3420.308,5.813,108.000,0.000,0.000,0.000,1.000,General,0.000,3420.308
 ElectricEquipment Internal Gains Nominal, HALL-2-2 189.1-2009 - OFFICE - WHOLEBUILDING - LG OFFICE - CZ4-8 ELECTRIC EQUIPMENT,LARGE OFFICE BLDG EQUIP,THERMAL ZONE: HALL-2-2,740.03,39.8,4301.424,5.813,108.000,0.000,0.000,0.000,1.000,General,0.000,4301.424
 ElectricEquipment Internal Gains Nominal, HALL-3-1 189.1-2009 - OFFICE - WHOLEBUILDING - LG OFFICE - CZ4-8 ELECTRIC EQUIPMENT,LARGE OFFICE BLDG EQUIP,THERMAL ZONE: HALL-3-1,850.00,45.7,4940.637,5.813,108.000,0.000,0.000,0.000,1.000,General,0.000,4940.637
 ElectricEquipment Internal Gains Nominal, HALL-3-2 189.1-2009 - OFFICE - WHOLEBUILDING - LG OFFICE - CZ4-8 ELECTRIC EQUIPMENT,LARGE OFFICE BLDG EQUIP,THERMAL ZONE: HALL-3-2,175.00,9.4,1017.190,5.813,108.000,0.000,0.000,0.000,1.000,General,0.000,1017.190
 ElectricEquipment Internal Gains Nominal, HALL-3-3 189.1-2009 - OFFICE - WHOLEBUILDING - LG OFFICE - CZ4-8 ELECTRIC EQUIPMENT,LARGE OFFICE BLDG EQUIP,THERMAL ZONE: HALL-3-3,850.00,45.7,4940.637,5.813,108.000,0.000,0.000,0.000,1.000,General,0.000,4940.637
 ElectricEquipment Internal Gains Nominal, P1-1-DINING 1 OFFICE DINING ELEC EQUIP,OFFICELARGE BLDG_EQUIP_SCH,THERMAL ZONE: P1-1-DINING 1,143.81,15.5,1547.992,10.764,100.000,0.000,0.500,0.000,0.500,General,0.000,1547.992
 ElectricEquipment Internal Gains Nominal, P1-7-DINING 1 OFFICE DINING ELEC EQUIP,OFFICELARGE BLDG_EQUIP_SCH,THERMAL ZONE: P1-7-DINING 1,35.96,3.9,387.018,10.764,100.000,0.000,0.500,0.000,0.500,General,0.000,387.018
 ElectricEquipment Internal Gains Nominal, P1-2-DINING 1 OFFICE DINING ELEC EQUIP,OFFICELARGE BLDG_EQUIP_SCH,THERMAL ZONE: P1-2-DINING 1,43.53,4.7,468.518,10.764,100.000,0.000,0.500,0.000,0.500,General,0.000,468.518
 ElectricEquipment Internal Gains Nominal, P1-4-DINING 1 OFFICE DINING ELEC EQUIP,OFFICELARGE BLDG_EQUIP_SCH,THERMAL ZONE: P1-4-DINING 1,53.02,5.7,570.679,10.764,100.000,0.000,0.500,0.000,0.500,General,0.000,570.679
 ElectricEquipment Internal Gains Nominal, P3-2-DINING 1 OFFICE DINING ELEC EQUIP,OFFICELARGE BLDG_EQUIP_SCH,THERMAL ZONE: P3-2-DINING 1,50.00,5.4,538.196,10.764,100.000,0.000,0.500,0.000,0.500,General,0.000,538.196
 ElectricEquipment Internal Gains Nominal, P3-1-DINING 1 OFFICE DINING ELEC EQUIP,OFFICELARGE BLDG_EQUIP_SCH,THERMAL ZONE: P3-1-DINING 1,100.00,10.8,1076.391,10.764,100.000,0.000,0.500,0.000,0.500,General,0.000,1076.391
 ElectricEquipment Internal Gains Nominal, P3-1-COMMERCE 1 RETAIL RETAIL ELEC EQUIP,RETAILSTANDALONE BLDG_EQUIP_SCH,THERMAL ZONE: P3-1-COMMERCE 1,100.00,16.1,322.917,3.229,20.000,0.000,0.500,0.000,0.500,General,0.000,322.917
 ElectricEquipment Internal Gains Nominal, P2-1-COMMERCE 2 RETAIL RETAIL ELEC EQUIP,RETAILSTANDALONE BLDG_EQUIP_SCH,THERMAL ZONE: P2-1-COMMERCE 2,40.85,6.6,131.908,3.229,20.000,0.000,0.500,0.000,0.500,General,0.000,131.908
 ElectricEquipment Internal Gains Nominal, P1-1-COMMERCE 1 RETAIL RETAIL ELEC EQUIP,RETAILSTANDALONE BLDG_EQUIP_SCH,THERMAL ZONE: P1-1-COMMERCE 1,130.76,21.1,422.239,3.229,20.000,0.000,0.500,0.000,0.500,General,0.000,422.239
 ElectricEquipment Internal Gains Nominal, P1-11-COMMERCE 2 RETAIL RETAIL ELEC EQUIP,RETAILSTANDALONE BLDG_EQUIP_SCH,THERMAL ZONE: P1-11-COMMERCE 2,87.19,14.1,281.544,3.229,20.000,0.000,0.500,0.000,0.500,General,0.000,281.544
 ElectricEquipment Internal Gains Nominal, P4-1-COMMERCE 1 RETAIL RETAIL ELEC EQUIP,RETAILSTANDALONE BLDG_EQUIP_SCH,THERMAL ZONE: P4-1-COMMERCE 1,73.59,11.9,237.628,3.229,20.000,0.000,0.500,0.000,0.500,General,0.000,237.628
 ElectricEquipment Internal Gains Nominal, P1-11-COMMERCE 1 RETAIL RETAIL ELEC EQUIP,RETAILSTANDALONE BLDG_EQUIP_SCH,THERMAL ZONE: P1-11-COMMERCE 1,75.13,12.1,242.620,3.229,20.000,0.000,0.500,0.000,0.500,General,0.000,242.620
 ElectricEquipment Internal Gains Nominal, P1-3-COMMERCE 1 RETAIL RETAIL ELEC EQUIP,RETAILSTANDALONE BLDG_EQUIP_SCH,THERMAL ZONE: P1-3-COMMERCE 1,53.02,8.6,171.204,3.229,20.000,0.000,0.500,0.000,0.500,General,0.000,171.204
 ElectricEquipment Internal Gains Nominal, P2-1-COMMERCE 3 RETAIL RETAIL ELEC EQUIP,RETAILSTANDALONE BLDG_EQUIP_SCH,THERMAL ZONE: P2-1-COMMERCE 3,46.01,7.4,148.565,3.229,20.000,0.000,0.500,0.000,0.500,General,0.000,148.565
 ElectricEquipment Internal Gains Nominal, P1-4-COMMERCE 1 RETAIL RETAIL ELEC EQUIP,RETAILSTANDALONE BLDG_EQUIP_SCH,THERMAL ZONE: P1-4-COMMERCE 1,53.02,8.6,171.204,3.229,20.000,0.000,0.500,0.000,0.500,General,0.000,171.204
 ElectricEquipment Internal Gains Nominal, P4-2-COMMERCE 2 RETAIL RETAIL ELEC EQUIP,RETAILSTANDALONE BLDG_EQUIP_SCH,THERMAL ZONE: P4-2-COMMERCE 2,36.81,5.9,118.863,3.229,20.000,0.000,0.500,0.000,0.500,General,0.000,118.863
 ElectricEquipment Internal Gains Nominal, P1-9-COMMERCE 1 RETAIL RETAIL ELEC EQUIP,RETAILSTANDALONE BLDG_EQUIP_SCH,THERMAL ZONE: P1-9-COMMERCE 1,45.00,7.3,145.313,3.229,20.000,0.000,0.500,0.000,0.500,General,0.000,145.313
 ElectricEquipment Internal Gains Nominal, P4-2-COMMERCE 1 RETAIL RETAIL ELEC EQUIP,RETAILSTANDALONE BLDG_EQUIP_SCH,THERMAL ZONE: P4-2-COMMERCE 1,46.18,7.5,149.114,3.229,20.000,0.000,0.500,0.000,0.500,General,0.000,149.114
 ElectricEquipment Internal Gains Nominal, P1-5-COMMERCE 1 RETAIL RETAIL ELEC EQUIP,RETAILSTANDALONE BLDG_EQUIP_SCH,THERMAL ZONE: P1-5-COMMERCE 1,70.18,11.3,226.637,3.229,20.000,0.000,0.500,0.000,0.500,General,0.000,226.637
 ElectricEquipment Internal Gains Nominal, P1-6-COMMERCE 1 RETAIL RETAIL ELEC EQUIP,RETAILSTANDALONE BLDG_EQUIP_SCH,THERMAL ZONE: P1-6-COMMERCE 1,101.96,16.5,329.243,3.229,20.000,0.000,0.500,0.000,0.500,General,0.000,329.243
 ElectricEquipment Internal Gains Nominal, P4-3-COMMERCE 2 RETAIL RETAIL ELEC EQUIP,RETAILSTANDALONE BLDG_EQUIP_SCH,THERMAL ZONE: P4-3-COMMERCE 2,23.98,3.9,77.444,3.229,20.000,0.000,0.500,0.000,0.500,General,0.000,77.444
 ElectricEquipment Internal Gains Nominal, P4-3-COMMERCE 1 RETAIL RETAIL ELEC EQUIP,RETAILSTANDALONE BLDG_EQUIP_SCH,THERMAL ZONE: P4-3-COMMERCE 1,27.24,4.4,87.960,3.229,20.000,0.000,0.500,0.000,0.500,General,0.000,87.960
! <Shadowing/Sun Position Calculations Annual Simulations>, Shading Calculation Method, Shading Calculation Update Frequency Method, Shading Calculation Update Frequency {days}, Maximum Figures in Shadow Overlap Calculations {}, Polygon Clipping Algorithm, Pixel Counting Resolution, Sky Diffuse Modeling Algorithm, Output External Shading Calculation Results, Disable Self-Shading Within Shading Zone Groups, Disable Self-Shading From Shading Zone Groups to Other Zones
Shadowing/Sun Position Calculations Annual Simulations,PolygonClipping,Periodic,20,15000,SutherlandHodgman,512,SimpleSkyDiffuseModeling,No,No,No
! <ZoneInfiltration Airflow Stats Nominal>,Name,Schedule Name,Zone Name, Zone Floor Area {m2}, # Zone Occupants,Design Volume Flow Rate {m3/s},Volume Flow Rate/Floor Area {m3/s-m2},Volume Flow Rate/Exterior Surface Area {m3/s-m2},ACH - Air Changes per Hour,Equation A - Constant Term Coefficient {},Equation B - Temperature Term Coefficient {1/C},Equation C - Velocity Term Coefficient {s/m}, Equation D - Velocity Squared Term Coefficient {s2/m2}
 ZoneInfiltration Airflow Stats Nominal, P1-11-OFFICE 1 189.1-2009 - OFFICE - CLOSEDOFFICE - CZ4-8 INFILTRATION 1,OFFICE INFIL QUARTER ON,THERMAL ZONE: P1-11-OFFICE 1,51.03,2.6,1.156E-002,2.266E-004,2.266E-004,0.163,1.000,0.000,0.000,0.000
 ZoneInfiltration Airflow Stats Nominal, P1-1-OFFICE 1 189.1-2009 - OFFICE - CLOSEDOFFICE - CZ4-8 INFILTRATION 1,OFFICE INFIL QUARTER ON,THERMAL ZONE: P1-1-OFFICE 1,109.77,5.6,2.487E-002,2.266E-004,2.266E-004,0.163,1.000,0.000,0.000,0.000
 ZoneInfiltration Airflow Stats Nominal, P1-1-OFFICE 2 189.1-2009 - OFFICE - CLOSEDOFFICE - CZ4-8 INFILTRATION 1,OFFICE INFIL QUARTER ON,THERMAL ZONE: P1-1-OFFICE 2,97.72,5.0,2.214E-002,2.266E-004,2.266E-004,0.163,1.000,0.000,0.000,0.000
 ZoneInfiltration Airflow Stats Nominal, P1-11-OFFICE 2 189.1-2009 - OFFICE - CLOSEDOFFICE - CZ4-8 INFILTRATION 1,OFFICE INFIL QUARTER ON,THERMAL ZONE: P1-11-OFFICE 2,63.08,3.2,1.429E-002,2.266E-004,2.266E-004,0.163,1.000,0.000,0.000,0.000
 ZoneInfiltration Airflow Stats Nominal, P1-7-OFFICE 1 189.1-2009 - OFFICE - CLOSEDOFFICE - CZ4-8 INFILTRATION 1,OFFICE INFIL QUARTER ON,THERMAL ZONE: P1-7-OFFICE 1,50.44,2.6,1.143E-002,2.266E-004,2.266E-004,0.163,1.000,0.000,0.000,0.000
 ZoneInfiltration Airflow Stats Nominal, P1-2-RESTROOM 1 189.1-2009 - OFFICE - RESTROOM - CZ4-8 INFILTRATION,OFFICE INFIL QUARTER ON,THERMAL ZONE: P1-2-RESTROOM 1,148.44,16.0,3.363E-002,2.266E-004,2.266E-004,0.163,1.000,0.000,0.000,0.000
 ZoneInfiltration Airflow Stats Nominal, P1-10-RESTROOM 1 189.1-2009 - OFFICE - RESTROOM - CZ4-8 INFILTRATION,OFFICE INFIL QUARTER ON,THERMAL ZONE: P1-10-RESTROOM 1,135.00,14.5,3.059E-002,2.266E-004,2.266E-004,0.163,1.000,0.000,0.000,0.000
 ZoneInfiltration Airflow Stats Nominal, P1-8-RESTROOM 1 189.1-2009 - OFFICE - RESTROOM - CZ4-8 INFILTRATION,OFFICE INFIL QUARTER ON,THERMAL ZONE: P1-8-RESTROOM 1,154.55,16.6,3.502E-002,2.266E-004,2.266E-004,0.163,1.000,0.000,0.000,0.000
 ZoneInfiltration Airflow Stats Nominal, P2-2-RESTROOM 1 189.1-2009 - OFFICE - RESTROOM - CZ4-8 INFILTRATION,OFFICE INFIL QUARTER ON,THERMAL ZONE: P2-2-RESTROOM 1,183.73,19.8,4.163E-002,2.266E-004,2.266E-004,0.163,1.000,0.000,0.000,0.000
 ZoneInfiltration Airflow Stats Nominal, P3-2-RESTROOM 1 189.1-2009 - OFFICE - RESTROOM - CZ4-8 INFILTRATION,OFFICE INFIL QUARTER ON,THERMAL ZONE: P3-2-RESTROOM 1,150.00,16.1,3.399E-002,2.266E-004,2.266E-004,0.163,1.000,0.000,0.000,0.000
 ZoneInfiltration Airflow Stats Nominal, HALL-1-1 189.1-2009 - OFFICE - WHOLEBUILDING - LG OFFICE - CZ4-8 INFILTRATION,LARGE OFFICE INFIL QUARTER ON,THERMAL ZONE: HALL-1-1,585.12,31.5,0.214,3.654E-004,2.266E-004,0.263,1.000,0.000,0.000,0.000
 ZoneInfiltration Airflow Stats Nominal, HALL-1-13 189.1-2009 - OFFICE - WHOLEBUILDING - LG OFFICE - CZ4-8 INFILTRATION,LARGE OFFICE INFIL QUARTER ON,THERMAL ZONE: HALL-1-13,1437.61,77.4,0.431,2.999E-004,2.266E-004,0.216,1.000,0.000,0.000,0.000
 ZoneInfiltration Airflow Stats Nominal, HALL-1-12 189.1-2009 - OFFICE - WHOLEBUILDING - LG OFFICE - CZ4-8 INFILTRATION,LARGE OFFICE INFIL QUARTER ON,THERMAL ZONE: HALL-1-12,1456.65,78.4,0.419,2.875E-004,2.266E-004,0.207,1.000,0.000,0.000,0.000
 ZoneInfiltration Airflow Stats Nominal, HALL-2-3 189.1-2009 - OFFICE - WHOLEBUILDING - LG OFFICE - CZ4-8 INFILTRATION,LARGE OFFICE INFIL QUARTER ON,THERMAL ZONE: HALL-2-3,726.47,39.1,0.244,3.357E-004,2.266E-004,0.242,1.000,0.000,0.000,0.000
 ZoneInfiltration Airflow Stats Nominal, HALL-1-2 189.1-2009 - OFFICE - WHOLEBUILDING - LG OFFICE - CZ4-8 INFILTRATION,LARGE OFFICE INFIL QUARTER ON,THERMAL ZONE: HALL-1-2,694.49,37.4,0.196,2.828E-004,2.266E-004,0.204,1.000,0.000,0.000,0.000
 ZoneInfiltration Airflow Stats Nominal, HALL-1-9 189.1-2009 - OFFICE - WHOLEBUILDING - LG OFFICE - CZ4-8 INFILTRATION,LARGE OFFICE INFIL QUARTER ON,THERMAL ZONE: HALL-1-9,465.21,25.0,0.118,2.542E-004,2.266E-004,0.183,1.000,0.000,0.000,0.000
 ZoneInfiltration Airflow Stats Nominal, HALL-1-6 189.1-2009 - OFFICE - WHOLEBUILDING - LG OFFICE - CZ4-8 INFILTRATION,LARGE OFFICE INFIL QUARTER ON,THERMAL ZONE: HALL-1-6,393.84,21.2,0.117,2.972E-004,2.266E-004,0.214,1.000,0.000,0.000,0.000
 ZoneInfiltration Airflow Stats Nominal, P1-2-BREAKROOM 1 189.1-2009 - OFFICE - WHOLEBUILDING - LG OFFICE - CZ4-8 INFILTRATION,LARGE OFFICE INFIL QUARTER ON,THERMAL ZONE: P1-2-BREAKROOM 1,26.56,1.4,6.018E-003,2.266E-004,2.266E-004,0.163,1.000,0.000,0.000,0.000
 ZoneInfiltration Airflow Stats Nominal, HALL-1-11 189.1-2009 - OFFICE - WHOLEBUILDING - LG OFFICE - CZ4-8 INFILTRATION,LARGE OFFICE INFIL QUARTER ON,THERMAL ZONE: HALL-1-11,236.48,12.7,6.578E-002,2.782E-004,2.266E-004,0.200,1.000,0.000,0.000,0.000
 ZoneInfiltration Airflow Stats Nominal, HALL-1-3 189.1-2009 - OFFICE - WHOLEBUILDING - LG OFFICE - CZ4-8 INFILTRATION,LARGE OFFICE INFIL QUARTER ON,THERMAL ZONE: HALL-1-3,758.96,40.8,0.211,2.778E-004,2.266E-004,0.200,1.000,0.000,0.000,0.000
 ZoneInfiltration Airflow Stats Nominal, HALL-1-4 189.1-2009 - OFFICE - WHOLEBUILDING - LG OFFICE - CZ4-8 INFILTRATION,LARGE OFFICE INFIL QUARTER ON,THERMAL ZONE: HALL-1-4,390.17,21.0,0.123,3.164E-004,2.266E-004,0.228,1.000,0.000,0.000,0.000
 ZoneInfiltration Airflow Stats Nominal, HALL-2-1 189.1-2009 - OFFICE - WHOLEBUILDING - LG OFFICE - CZ4-8 INFILTRATION,LARGE OFFICE INFIL QUARTER ON,THERMAL ZONE: HALL-2-1,337.92,18.2,0.111,3.279E-004,2.266E-004,0.236,1.000,0.000,0.000,0.000
 ZoneInfiltration Airflow Stats Nominal, HALL-1-10 189.1-2009 - OFFICE - WHOLEBUILDING - LG OFFICE - CZ4-8 INFILTRATION,LARGE OFFICE INFIL QUARTER ON,THERMAL ZONE: HALL-1-10,924.32,49.7,0.279,3.020E-004,2.266E-004,0.217,1.000,0.000,0.000,0.000
 ZoneInfiltration Airflow Stats Nominal, HALL-1-5 189.1-2009 - OFFICE - WHOLEBUILDING - LG OFFICE - CZ4-8 INFILTRATION,LARGE OFFICE INFIL QUARTER ON,THERMAL ZONE: HALL-1-5,550.93,29.7,0.160,2.905E-004,2.266E-004,0.209,1.000,0.000,0.000,0.000
 ZoneInfiltration Airflow Stats Nominal, HALL-1-7 189.1-2009 - OFFICE - WHOLEBUILDING - LG OFFICE - CZ4-8 INFILTRATION,LARGE OFFICE INFIL QUARTER ON,THERMAL ZONE: HALL-1-7,380.73,20.5,0.108,2.827E-004,2.266E-004,0.204,1.000,0.000,0.000,0.000
 ZoneInfiltration Airflow Stats Nominal, HALL-1-8 189.1-2009 - OFFICE - WHOLEBUILDING - LG OFFICE - CZ4-8 INFILTRATION,LARGE OFFICE INFIL QUARTER ON,THERMAL ZONE: HALL-1-8,258.83,13.9,6.893E-002,2.663E-004,2.266E-004,0.192,1.000,0.000,0.000,0.000
 ZoneInfiltration Airflow Stats Nominal, HALL-4-4 189.1-2009 - OFFICE - WHOLEBUILDING - LG OFFICE - CZ4-8 INFILTRATION,LARGE OFFICE INFIL QUARTER ON,THERMAL ZONE: HALL-4-4,370.59,19.9,0.127,3.429E-004,2.266E-004,0.247,1.000,0.000,0.000,0.000
 ZoneInfiltration Airflow Stats Nominal, HALL-4-3 189.1-2009 - OFFICE - WHOLEBUILDING - LG OFFICE - CZ4-8 INFILTRATION,LARGE OFFICE INFIL QUARTER ON,THERMAL ZONE: HALL-4-3,388.82,20.9,0.133,3.433E-004,2.266E-004,0.247,1.000,0.000,0.000,0.000
 ZoneInfiltration Airflow Stats Nominal, HALL-4-2 189.1-2009 - OFFICE - WHOLEBUILDING - LG OFFICE - CZ4-8 INFILTRATION,LARGE OFFICE INFIL QUARTER ON,THERMAL ZONE: HALL-4-2,519.36,28.0,0.172,3.316E-004,2.266E-004,0.239,1.000,0.000,0.000,0.000
 ZoneInfiltration Airflow Stats Nominal, HALL-4-1 189.1-2009 - OFFICE - WHOLEBUILDING - LG OFFICE - CZ4-8 INFILTRATION,LARGE OFFICE INFIL QUARTER ON,THERMAL ZONE: HALL-4-1,588.44,31.7,0.187,3.179E-004,2.266E-004,0.229,1.000,0.000,0.000,0.000
 ZoneInfiltration Airflow Stats Nominal, HALL-2-2 189.1-2009 - OFFICE - WHOLEBUILDING - LG OFFICE - CZ4-8 INFILTRATION,LARGE OFFICE INFIL QUARTER ON,THERMAL ZONE: HALL-2-2,740.03,39.8,0.251,3.390E-004,2.266E-004,0.244,1.000,0.000,0.000,0.000
 ZoneInfiltration Airflow Stats Nominal, HALL-3-1 189.1-2009 - OFFICE - WHOLEBUILDING - LG OFFICE - CZ4-8 INFILTRATION,LARGE OFFICE INFIL QUARTER ON,THERMAL ZONE: HALL-3-1,850.00,45.7,0.261,3.065E-004,2.266E-004,0.221,1.000,0.000,0.000,0.000
 ZoneInfiltration Airflow Stats Nominal, HALL-3-2 189.1-2009 - OFFICE - WHOLEBUILDING - LG OFFICE - CZ4-8 INFILTRATION,LARGE OFFICE INFIL QUARTER ON,THERMAL ZONE: HALL-3-2,175.00,9.4,5.098E-002,2.913E-004,2.266E-004,0.210,1.000,0.000,0.000,0.000
 ZoneInfiltration Airflow Stats Nominal, HALL-3-3 189.1-2009 - OFFICE - WHOLEBUILDING - LG OFFICE - CZ4-8 INFILTRATION,LARGE OFFICE INFIL QUARTER ON,THERMAL ZONE: HALL-3-3,850.00,45.7,0.261,3.065E-004,2.266E-004,0.221,1.000,0.000,0.000,0.000
 ZoneInfiltration Airflow Stats Nominal, P1-1-DINING 1 OFFICE DINING INFILTRATION,OFFICEMEDIUM INFIL_SCH_PNNL,THERMAL ZONE: P1-1-DINING 1,143.81,15.5,4.347E-002,3.023E-004,3.023E-004,0.218,1.000,0.000,0.000,0.000
 ZoneInfiltration Airflow Stats Nominal, P1-7-DINING 1 OFFICE DINING INFILTRATION,OFFICEMEDIUM INFIL_SCH_PNNL,THERMAL ZONE: P1-7-DINING 1,35.96,3.9,1.087E-002,3.023E-004,3.023E-004,0.218,1.000,0.000,0.000,0.000
 ZoneInfiltration Airflow Stats Nominal, P1-2-DINING 1 OFFICE DINING INFILTRATION,OFFICEMEDIUM INFIL_SCH_PNNL,THERMAL ZONE: P1-2-DINING 1,43.53,4.7,1.316E-002,3.023E-004,3.023E-004,0.218,1.000,0.000,0.000,0.000
 ZoneInfiltration Airflow Stats Nominal, P1-4-DINING 1 OFFICE DINING INFILTRATION,OFFICEMEDIUM INFIL_SCH_PNNL,THERMAL ZONE: P1-4-DINING 1,53.02,5.7,1.603E-002,3.023E-004,3.023E-004,0.218,1.000,0.000,0.000,0.000
 ZoneInfiltration Airflow Stats Nominal, P3-2-DINING 1 OFFICE DINING INFILTRATION,OFFICEMEDIUM INFIL_SCH_PNNL,THERMAL ZONE: P3-2-DINING 1,50.00,5.4,1.511E-002,3.023E-004,3.023E-004,0.218,1.000,0.000,0.000,0.000
 ZoneInfiltration Airflow Stats Nominal, P3-1-DINING 1 OFFICE DINING INFILTRATION,OFFICEMEDIUM INFIL_SCH_PNNL,THERMAL ZONE: P3-1-DINING 1,100.00,10.8,3.023E-002,3.023E-004,3.023E-004,0.218,1.000,0.000,0.000,0.000
 ZoneInfiltration Airflow Stats Nominal, P3-1-COMMERCE 1 RETAIL RETAIL INFILTRATION,RETAILSTANDALONE INFIL_SCH_PNNL,THERMAL ZONE: P3-1-COMMERCE 1,100.00,16.1,3.023E-002,3.023E-004,3.023E-004,0.218,1.000,0.000,0.000,0.000
 ZoneInfiltration Airflow Stats Nominal, P2-1-COMMERCE 2 RETAIL RETAIL INFILTRATION,RETAILSTANDALONE INFIL_SCH_PNNL,THERMAL ZONE: P2-1-COMMERCE 2,40.85,6.6,1.235E-002,3.023E-004,3.023E-004,0.218,1.000,0.000,0.000,0.000
 ZoneInfiltration Airflow Stats Nominal, P1-1-COMMERCE 1 RETAIL RETAIL INFILTRATION,RETAILSTANDALONE INFIL_SCH_PNNL,THERMAL ZONE: P1-1-COMMERCE 1,130.76,21.1,3.952E-002,3.023E-004,3.023E-004,0.218,1.000,0.000,0.000,0.000
 ZoneInfiltration Airflow Stats Nominal, P1-11-COMMERCE 2 RETAIL RETAIL INFILTRATION,RETAILSTANDALONE INFIL_SCH_PNNL,THERMAL ZONE: P1-11-COMMERCE 2,87.19,14.1,2.635E-002,3.023E-004,3.023E-004,0.218,1.000,0.000,0.000,0.000
 ZoneInfiltration Airflow Stats Nominal, P4-1-COMMERCE 1 RETAIL RETAIL INFILTRATION,RETAILSTANDALONE INFIL_SCH_PNNL,THERMAL ZONE: P4-1-COMMERCE 1,73.59,11.9,2.224E-002,3.023E-004,3.023E-004,0.218,1.000,0.000,0.000,0.000
 ZoneInfiltration Airflow Stats Nominal, P1-11-COMMERCE 1 RETAIL RETAIL INFILTRATION,RETAILSTANDALONE INFIL_SCH_PNNL,THERMAL ZONE: P1-11-COMMERCE 1,75.13,12.1,2.271E-002,3.023E-004,3.023E-004,0.218,1.000,0.000,0.000,0.000
 ZoneInfiltration Airflow Stats Nominal, P1-3-COMMERCE 1 RETAIL RETAIL INFILTRATION,RETAILSTANDALONE INFIL_SCH_PNNL,THERMAL ZONE: P1-3-COMMERCE 1,53.02,8.6,1.603E-002,3.023E-004,3.023E-004,0.218,1.000,0.000,0.000,0.000
 ZoneInfiltration Airflow Stats Nominal, P2-1-COMMERCE 3 RETAIL RETAIL INFILTRATION,RETAILSTANDALONE INFIL_SCH_PNNL,THERMAL ZONE: P2-1-COMMERCE 3,46.01,7.4,1.391E-002,3.023E-004,3.023E-004,0.218,1.000,0.000,0.000,0.000
 ZoneInfiltration Airflow Stats Nominal, P1-4-COMMERCE 1 RETAIL RETAIL INFILTRATION,RETAILSTANDALONE INFIL_SCH_PNNL,THERMAL ZONE: P1-4-COMMERCE 1,53.02,8.6,1.603E-002,3.023E-004,3.023E-004,0.218,1.000,0.000,0.000,0.000
[...]
 Component Sizing Information, ZoneHVAC:IdealLoadsAirSystem, THERMAL ZONE: P1-3-COMMERCE 1 IDEAL LOADS AIR SYSTEM, User-Specified maximum_heating_air_flow_rate [m3/s], 0.00000
 Component Sizing Information, ZoneHVAC:IdealLoadsAirSystem, THERMAL ZONE: P1-3-COMMERCE 1 IDEAL LOADS AIR SYSTEM, User-Specified maximum_cooling_air_flow_rate [m3/s], 0.00000
 Component Sizing Information, ZoneHVAC:IdealLoadsAirSystem, THERMAL ZONE: P1-4-COMMERCE 1 IDEAL LOADS AIR SYSTEM, User-Specified maximum_heating_air_flow_rate [m3/s], 0.00000
 Component Sizing Information, ZoneHVAC:IdealLoadsAirSystem, THERMAL ZONE: P1-4-COMMERCE 1 IDEAL LOADS AIR SYSTEM, User-Specified maximum_cooling_air_flow_rate [m3/s], 0.00000
 Component Sizing Information, ZoneHVAC:IdealLoadsAirSystem, THERMAL ZONE: P1-4-DINING 1 IDEAL LOADS AIR SYSTEM, User-Specified maximum_heating_air_flow_rate [m3/s], 0.00000
 Component Sizing Information, ZoneHVAC:IdealLoadsAirSystem, THERMAL ZONE: P1-4-DINING 1 IDEAL LOADS AIR SYSTEM, User-Specified maximum_cooling_air_flow_rate [m3/s], 0.00000
 Component Sizing Information, ZoneHVAC:IdealLoadsAirSystem, THERMAL ZONE: P1-5-COMMERCE 1 IDEAL LOADS AIR SYSTEM, User-Specified maximum_heating_air_flow_rate [m3/s], 0.00000
 Component Sizing Information, ZoneHVAC:IdealLoadsAirSystem, THERMAL ZONE: P1-5-COMMERCE 1 IDEAL LOADS AIR SYSTEM, User-Specified maximum_cooling_air_flow_rate [m3/s], 0.00000
 Component Sizing Information, ZoneHVAC:IdealLoadsAirSystem, THERMAL ZONE: P1-6-COMMERCE 1 IDEAL LOADS AIR SYSTEM, User-Specified maximum_heating_air_flow_rate [m3/s], 0.00000
 Component Sizing Information, ZoneHVAC:IdealLoadsAirSystem, THERMAL ZONE: P1-6-COMMERCE 1 IDEAL LOADS AIR SYSTEM, User-Specified maximum_cooling_air_flow_rate [m3/s], 0.00000
 Component Sizing Information, ZoneHVAC:IdealLoadsAirSystem, THERMAL ZONE: P1-7-DINING 1 IDEAL LOADS AIR SYSTEM, User-Specified maximum_heating_air_flow_rate [m3/s], 0.00000
 Component Sizing Information, ZoneHVAC:IdealLoadsAirSystem, THERMAL ZONE: P1-7-DINING 1 IDEAL LOADS AIR SYSTEM, User-Specified maximum_cooling_air_flow_rate [m3/s], 0.00000
 Component Sizing Information, ZoneHVAC:IdealLoadsAirSystem, THERMAL ZONE: P1-7-OFFICE 1 IDEAL LOADS AIR SYSTEM, User-Specified maximum_heating_air_flow_rate [m3/s], 0.00000
 Component Sizing Information, ZoneHVAC:IdealLoadsAirSystem, THERMAL ZONE: P1-7-OFFICE 1 IDEAL LOADS AIR SYSTEM, User-Specified maximum_cooling_air_flow_rate [m3/s], 0.00000
 Component Sizing Information, ZoneHVAC:IdealLoadsAirSystem, THERMAL ZONE: P1-8-RESTROOM 1 IDEAL LOADS AIR SYSTEM, User-Specified maximum_heating_air_flow_rate [m3/s], 0.00000
 Component Sizing Information, ZoneHVAC:IdealLoadsAirSystem, THERMAL ZONE: P1-8-RESTROOM 1 IDEAL LOADS AIR SYSTEM, User-Specified maximum_cooling_air_flow_rate [m3/s], 0.00000
 Component Sizing Information, ZoneHVAC:IdealLoadsAirSystem, THERMAL ZONE: P1-9-COMMERCE 1 IDEAL LOADS AIR SYSTEM, User-Specified maximum_heating_air_flow_rate [m3/s], 0.00000
 Component Sizing Information, ZoneHVAC:IdealLoadsAirSystem, THERMAL ZONE: P1-9-COMMERCE 1 IDEAL LOADS AIR SYSTEM, User-Specified maximum_cooling_air_flow_rate [m3/s], 0.00000
 Component Sizing Information, ZoneHVAC:IdealLoadsAirSystem, THERMAL ZONE: P1-10-RESTROOM 1 IDEAL LOADS AIR SYSTEM, User-Specified maximum_heating_air_flow_rate [m3/s], 0.00000
 Component Sizing Information, ZoneHVAC:IdealLoadsAirSystem, THERMAL ZONE: P1-10-RESTROOM 1 IDEAL LOADS AIR SYSTEM, User-Specified maximum_cooling_air_flow_rate [m3/s], 0.00000
 Component Sizing Information, ZoneHVAC:IdealLoadsAirSystem, THERMAL ZONE: P1-11-COMMERCE 1 IDEAL LOADS AIR SYSTEM, User-Specified maximum_heating_air_flow_rate [m3/s], 0.00000
 Component Sizing Information, ZoneHVAC:IdealLoadsAirSystem, THERMAL ZONE: P1-11-COMMERCE 1 IDEAL LOADS AIR SYSTEM, User-Specified maximum_cooling_air_flow_rate [m3/s], 0.00000
 Component Sizing Information, ZoneHVAC:IdealLoadsAirSystem, THERMAL ZONE: P1-11-COMMERCE 2 IDEAL LOADS AIR SYSTEM, User-Specified maximum_heating_air_flow_rate [m3/s], 0.00000
 Component Sizing Information, ZoneHVAC:IdealLoadsAirSystem, THERMAL ZONE: P1-11-COMMERCE 2 IDEAL LOADS AIR SYSTEM, User-Specified maximum_cooling_air_flow_rate [m3/s], 0.00000
 Component Sizing Information, ZoneHVAC:IdealLoadsAirSystem, THERMAL ZONE: P1-11-OFFICE 1 IDEAL LOADS AIR SYSTEM, User-Specified maximum_heating_air_flow_rate [m3/s], 0.00000
 Component Sizing Information, ZoneHVAC:IdealLoadsAirSystem, THERMAL ZONE: P1-11-OFFICE 1 IDEAL LOADS AIR SYSTEM, User-Specified maximum_cooling_air_flow_rate [m3/s], 0.00000
 Component Sizing Information, ZoneHVAC:IdealLoadsAirSystem, THERMAL ZONE: P1-11-OFFICE 2 IDEAL LOADS AIR SYSTEM, User-Specified maximum_heating_air_flow_rate [m3/s], 0.00000
 Component Sizing Information, ZoneHVAC:IdealLoadsAirSystem, THERMAL ZONE: P1-11-OFFICE 2 IDEAL LOADS AIR SYSTEM, User-Specified maximum_cooling_air_flow_rate [m3/s], 0.00000
 Component Sizing Information, ZoneHVAC:IdealLoadsAirSystem, THERMAL ZONE: P2-1-COMMERCE 2 IDEAL LOADS AIR SYSTEM, User-Specified maximum_heating_air_flow_rate [m3/s], 0.00000
 Component Sizing Information, ZoneHVAC:IdealLoadsAirSystem, THERMAL ZONE: P2-1-COMMERCE 2 IDEAL LOADS AIR SYSTEM, User-Specified maximum_cooling_air_flow_rate [m3/s], 0.00000
 Component Sizing Information, ZoneHVAC:IdealLoadsAirSystem, THERMAL ZONE: P2-1-COMMERCE 3 IDEAL LOADS AIR SYSTEM, User-Specified maximum_heating_air_flow_rate [m3/s], 0.00000
 Component Sizing Information, ZoneHVAC:IdealLoadsAirSystem, THERMAL ZONE: P2-1-COMMERCE 3 IDEAL LOADS AIR SYSTEM, User-Specified maximum_cooling_air_flow_rate [m3/s], 0.00000
 Component Sizing Information, ZoneHVAC:IdealLoadsAirSystem, THERMAL ZONE: P2-2-RESTROOM 1 IDEAL LOADS AIR SYSTEM, User-Specified maximum_heating_air_flow_rate [m3/s], 0.00000
 Component Sizing Information, ZoneHVAC:IdealLoadsAirSystem, THERMAL ZONE: P2-2-RESTROOM 1 IDEAL LOADS AIR SYSTEM, User-Specified maximum_cooling_air_flow_rate [m3/s], 0.00000
 Component Sizing Information, ZoneHVAC:IdealLoadsAirSystem, THERMAL ZONE: P3-1-COMMERCE 1 IDEAL LOADS AIR SYSTEM, User-Specified maximum_heating_air_flow_rate [m3/s], 0.00000
 Component Sizing Information, ZoneHVAC:IdealLoadsAirSystem, THERMAL ZONE: P3-1-COMMERCE 1 IDEAL LOADS AIR SYSTEM, User-Specified maximum_cooling_air_flow_rate [m3/s], 0.00000
 Component Sizing Information, ZoneHVAC:IdealLoadsAirSystem, THERMAL ZONE: P3-1-DINING 1 IDEAL LOADS AIR SYSTEM, User-Specified maximum_heating_air_flow_rate [m3/s], 0.00000
 Component Sizing Information, ZoneHVAC:IdealLoadsAirSystem, THERMAL ZONE: P3-1-DINING 1 IDEAL LOADS AIR SYSTEM, User-Specified maximum_cooling_air_flow_rate [m3/s], 0.00000
 Component Sizing Information, ZoneHVAC:IdealLoadsAirSystem, THERMAL ZONE: P3-2-DINING 1 IDEAL LOADS AIR SYSTEM, User-Specified maximum_heating_air_flow_rate [m3/s], 0.00000
 Component Sizing Information, ZoneHVAC:IdealLoadsAirSystem, THERMAL ZONE: P3-2-DINING 1 IDEAL LOADS AIR SYSTEM, User-Specified maximum_cooling_air_flow_rate [m3/s], 0.00000
 Component Sizing Information, ZoneHVAC:IdealLoadsAirSystem, THERMAL ZONE: P3-2-RESTROOM 1 IDEAL LOADS AIR SYSTEM, User-Specified maximum_heating_air_flow_rate [m3/s], 0.00000
 Component Sizing Information, ZoneHVAC:IdealLoadsAirSystem, THERMAL ZONE: P3-2-RESTROOM 1 IDEAL LOADS AIR SYSTEM, User-Specified maximum_cooling_air_flow_rate [m3/s], 0.00000
 Component Sizing Information, ZoneHVAC:IdealLoadsAirSystem, THERMAL ZONE: P4-1-COMMERCE 1 IDEAL LOADS AIR SYSTEM, User-Specified maximum_heating_air_flow_rate [m3/s], 0.00000
 Component Sizing Information, ZoneHVAC:IdealLoadsAirSystem, THERMAL ZONE: P4-1-COMMERCE 1 IDEAL LOADS AIR SYSTEM, User-Specified maximum_cooling_air_flow_rate [m3/s], 0.00000
 Component Sizing Information, ZoneHVAC:IdealLoadsAirSystem, THERMAL ZONE: P4-2-COMMERCE 1 IDEAL LOADS AIR SYSTEM, User-Specified maximum_heating_air_flow_rate [m3/s], 0.00000
 Component Sizing Information, ZoneHVAC:IdealLoadsAirSystem, THERMAL ZONE: P4-2-COMMERCE 1 IDEAL LOADS AIR SYSTEM, User-Specified maximum_cooling_air_flow_rate [m3/s], 0.00000
 Component Sizing Information, ZoneHVAC:IdealLoadsAirSystem, THERMAL ZONE: P4-2-COMMERCE 2 IDEAL LOADS AIR SYSTEM, User-Specified maximum_heating_air_flow_rate [m3/s], 0.00000
 Component Sizing Information, ZoneHVAC:IdealLoadsAirSystem, THERMAL ZONE: P4-2-COMMERCE 2 IDEAL LOADS AIR SYSTEM, User-Specified maximum_cooling_air_flow_rate [m3/s], 0.00000
 Component Sizing Information, ZoneHVAC:IdealLoadsAirSystem, THERMAL ZONE: P4-3-COMMERCE 1 IDEAL LOADS AIR SYSTEM, User-Specified maximum_heating_air_flow_rate [m3/s], 0.00000
 Component Sizing Information, ZoneHVAC:IdealLoadsAirSystem, THERMAL ZONE: P4-3-COMMERCE 1 IDEAL LOADS AIR SYSTEM, User-Specified maximum_cooling_air_flow_rate [m3/s], 0.00000
 Component Sizing Information, ZoneHVAC:IdealLoadsAirSystem, THERMAL ZONE: P4-3-COMMERCE 2 IDEAL LOADS AIR SYSTEM, User-Specified maximum_heating_air_flow_rate [m3/s], 0.00000
 Component Sizing Information, ZoneHVAC:IdealLoadsAirSystem, THERMAL ZONE: P4-3-COMMERCE 2 IDEAL LOADS AIR SYSTEM, User-Specified maximum_cooling_air_flow_rate [m3/s], 0.00000
 Component Sizing Information, ZoneHVAC:IdealLoadsAirSystem, THERMAL ZONE: HALL-1-1 IDEAL LOADS AIR SYSTEM, User-Specified maximum_heating_air_flow_rate [m3/s], 0.00000
 Component Sizing Information, ZoneHVAC:IdealLoadsAirSystem, THERMAL ZONE: HALL-1-1 IDEAL LOADS AIR SYSTEM, User-Specified maximum_cooling_air_flow_rate [m3/s], 0.00000
 Component Sizing Information, ZoneHVAC:IdealLoadsAirSystem, THERMAL ZONE: HALL-1-2 IDEAL LOADS AIR SYSTEM, User-Specified maximum_heating_air_flow_rate [m3/s], 0.00000
 Component Sizing Information, ZoneHVAC:IdealLoadsAirSystem, THERMAL ZONE: HALL-1-2 IDEAL LOADS AIR SYSTEM, User-Specified maximum_cooling_air_flow_rate [m3/s], 0.00000
 Component Sizing Information, ZoneHVAC:IdealLoadsAirSystem, THERMAL ZONE: HALL-1-3 IDEAL LOADS AIR SYSTEM, User-Specified maximum_heating_air_flow_rate [m3/s], 0.00000
 Component Sizing Information, ZoneHVAC:IdealLoadsAirSystem, THERMAL ZONE: HALL-1-3 IDEAL LOADS AIR SYSTEM, User-Specified maximum_cooling_air_flow_rate [m3/s], 0.00000
 Component Sizing Information, ZoneHVAC:IdealLoadsAirSystem, THERMAL ZONE: HALL-1-4 IDEAL LOADS AIR SYSTEM, User-Specified maximum_heating_air_flow_rate [m3/s], 0.00000
 Component Sizing Information, ZoneHVAC:IdealLoadsAirSystem, THERMAL ZONE: HALL-1-4 IDEAL LOADS AIR SYSTEM, User-Specified maximum_cooling_air_flow_rate [m3/s], 0.00000
 Component Sizing Information, ZoneHVAC:IdealLoadsAirSystem, THERMAL ZONE: HALL-1-5 IDEAL LOADS AIR SYSTEM, User-Specified maximum_heating_air_flow_rate [m3/s], 0.00000
 Component Sizing Information, ZoneHVAC:IdealLoadsAirSystem, THERMAL ZONE: HALL-1-5 IDEAL LOADS AIR SYSTEM, User-Specified maximum_cooling_air_flow_rate [m3/s], 0.00000
 Component Sizing Information, ZoneHVAC:IdealLoadsAirSystem, THERMAL ZONE: HALL-1-6 IDEAL LOADS AIR SYSTEM, User-Specified maximum_heating_air_flow_rate [m3/s], 0.00000
 Component Sizing Information, ZoneHVAC:IdealLoadsAirSystem, THERMAL ZONE: HALL-1-6 IDEAL LOADS AIR SYSTEM, User-Specified maximum_cooling_air_flow_rate [m3/s], 0.00000
 Component Sizing Information, ZoneHVAC:IdealLoadsAirSystem, THERMAL ZONE: HALL-1-7 IDEAL LOADS AIR SYSTEM, User-Specified maximum_heating_air_flow_rate [m3/s], 0.00000
 Component Sizing Information, ZoneHVAC:IdealLoadsAirSystem, THERMAL ZONE: HALL-1-7 IDEAL LOADS AIR SYSTEM, User-Specified maximum_cooling_air_flow_rate [m3/s], 0.00000
 Component Sizing Information, ZoneHVAC:IdealLoadsAirSystem, THERMAL ZONE: HALL-1-8 IDEAL LOADS AIR SYSTEM, User-Specified maximum_heating_air_flow_rate [m3/s], 0.00000
 Component Sizing Information, ZoneHVAC:IdealLoadsAirSystem, THERMAL ZONE: HALL-1-8 IDEAL LOADS AIR SYSTEM, User-Specified maximum_cooling_air_flow_rate [m3/s], 0.00000
 Component Sizing Information, ZoneHVAC:IdealLoadsAirSystem, THERMAL ZONE: HALL-1-9 IDEAL LOADS AIR SYSTEM, User-Specified maximum_heating_air_flow_rate [m3/s], 0.00000
 Component Sizing Information, ZoneHVAC:IdealLoadsAirSystem, THERMAL ZONE: HALL-1-9 IDEAL LOADS AIR SYSTEM, User-Specified maximum_cooling_air_flow_rate [m3/s], 0.00000
 Component Sizing Information, ZoneHVAC:IdealLoadsAirSystem, THERMAL ZONE: HALL-1-10 IDEAL LOADS AIR SYSTEM, User-Specified maximum_heating_air_flow_rate [m3/s], 0.00000
 Component Sizing Information, ZoneHVAC:IdealLoadsAirSystem, THERMAL ZONE: HALL-1-10 IDEAL LOADS AIR SYSTEM, User-Specified maximum_cooling_air_flow_rate [m3/s], 0.00000
 Component Sizing Information, ZoneHVAC:IdealLoadsAirSystem, THERMAL ZONE: HALL-1-11 IDEAL LOADS AIR SYSTEM, User-Specified maximum_heating_air_flow_rate [m3/s], 0.00000
 Component Sizing Information, ZoneHVAC:IdealLoadsAirSystem, THERMAL ZONE: HALL-1-11 IDEAL LOADS AIR SYSTEM, User-Specified maximum_cooling_air_flow_rate [m3/s], 0.00000
 Component Sizing Information, ZoneHVAC:IdealLoadsAirSystem, THERMAL ZONE: HALL-1-12 IDEAL LOADS AIR SYSTEM, User-Specified maximum_heating_air_flow_rate [m3/s], 0.00000
 Component Sizing Information, ZoneHVAC:IdealLoadsAirSystem, THERMAL ZONE: HALL-1-12 IDEAL LOADS AIR SYSTEM, User-Specified maximum_cooling_air_flow_rate [m3/s], 0.00000
 Component Sizing Information, ZoneHVAC:IdealLoadsAirSystem, THERMAL ZONE: HALL-1-13 IDEAL LOADS AIR SYSTEM, User-Specified maximum_heating_air_flow_rate [m3/s], 0.00000
 Component Sizing Information, ZoneHVAC:IdealLoadsAirSystem, THERMAL ZONE: HALL-1-13 IDEAL LOADS AIR SYSTEM, User-Specified maximum_cooling_air_flow_rate [m3/s], 0.00000
 Component Sizing Information, ZoneHVAC:IdealLoadsAirSystem, THERMAL ZONE: HALL-2-1 IDEAL LOADS AIR SYSTEM, User-Specified maximum_heating_air_flow_rate [m3/s], 0.00000
 Component Sizing Information, ZoneHVAC:IdealLoadsAirSystem, THERMAL ZONE: HALL-2-1 IDEAL LOADS AIR SYSTEM, User-Specified maximum_cooling_air_flow_rate [m3/s], 0.00000
 Component Sizing Information, ZoneHVAC:IdealLoadsAirSystem, THERMAL ZONE: HALL-2-2 IDEAL LOADS AIR SYSTEM, User-Specified maximum_heating_air_flow_rate [m3/s], 0.00000
 Component Sizing Information, ZoneHVAC:IdealLoadsAirSystem, THERMAL ZONE: HALL-2-2 IDEAL LOADS AIR SYSTEM, User-Specified maximum_cooling_air_flow_rate [m3/s], 0.00000
 Component Sizing Information, ZoneHVAC:IdealLoadsAirSystem, THERMAL ZONE: HALL-2-3 IDEAL LOADS AIR SYSTEM, User-Specified maximum_heating_air_flow_rate [m3/s], 0.00000
 Component Sizing Information, ZoneHVAC:IdealLoadsAirSystem, THERMAL ZONE: HALL-2-3 IDEAL LOADS AIR SYSTEM, User-Specified maximum_cooling_air_flow_rate [m3/s], 0.00000
 Component Sizing Information, ZoneHVAC:IdealLoadsAirSystem, THERMAL ZONE: HALL-3-1 IDEAL LOADS AIR SYSTEM, User-Specified maximum_heating_air_flow_rate [m3/s], 0.00000
 Component Sizing Information, ZoneHVAC:IdealLoadsAirSystem, THERMAL ZONE: HALL-3-1 IDEAL LOADS AIR SYSTEM, User-Specified maximum_cooling_air_flow_rate [m3/s], 0.00000
 Component Sizing Information, ZoneHVAC:IdealLoadsAirSystem, THERMAL ZONE: HALL-3-2 IDEAL LOADS AIR SYSTEM, User-Specified maximum_heating_air_flow_rate [m3/s], 0.00000
 Component Sizing Information, ZoneHVAC:IdealLoadsAirSystem, THERMAL ZONE: HALL-3-2 IDEAL LOADS AIR SYSTEM, User-Specified maximum_cooling_air_flow_rate [m3/s], 0.00000
 Component Sizing Information, ZoneHVAC:IdealLoadsAirSystem, THERMAL ZONE: HALL-3-3 IDEAL LOADS AIR SYSTEM, User-Specified maximum_heating_air_flow_rate [m3/s], 0.00000
 Component Sizing Information, ZoneHVAC:IdealLoadsAirSystem, THERMAL ZONE: HALL-3-3 IDEAL LOADS AIR SYSTEM, User-Specified maximum_cooling_air_flow_rate [m3/s], 0.00000
 Component Sizing Information, ZoneHVAC:IdealLoadsAirSystem, THERMAL ZONE: HALL-4-1 IDEAL LOADS AIR SYSTEM, User-Specified maximum_heating_air_flow_rate [m3/s], 0.00000
 Component Sizing Information, ZoneHVAC:IdealLoadsAirSystem, THERMAL ZONE: HALL-4-1 IDEAL LOADS AIR SYSTEM, User-Specified maximum_cooling_air_flow_rate [m3/s], 0.00000
 Component Sizing Information, ZoneHVAC:IdealLoadsAirSystem, THERMAL ZONE: HALL-4-2 IDEAL LOADS AIR SYSTEM, User-Specified maximum_heating_air_flow_rate [m3/s], 0.00000
 Component Sizing Information, ZoneHVAC:IdealLoadsAirSystem, THERMAL ZONE: HALL-4-2 IDEAL LOADS AIR SYSTEM, User-Specified maximum_cooling_air_flow_rate [m3/s], 0.00000
 Component Sizing Information, ZoneHVAC:IdealLoadsAirSystem, THERMAL ZONE: HALL-4-3 IDEAL LOADS AIR SYSTEM, User-Specified maximum_heating_air_flow_rate [m3/s], 0.00000
 Component Sizing Information, ZoneHVAC:IdealLoadsAirSystem, THERMAL ZONE: HALL-4-3 IDEAL LOADS AIR SYSTEM, User-Specified maximum_cooling_air_flow_rate [m3/s], 0.00000
 Component Sizing Information, ZoneHVAC:IdealLoadsAirSystem, THERMAL ZONE: HALL-4-4 IDEAL LOADS AIR SYSTEM, User-Specified maximum_heating_air_flow_rate [m3/s], 0.00000
 Component Sizing Information, ZoneHVAC:IdealLoadsAirSystem, THERMAL ZONE: HALL-4-4 IDEAL LOADS AIR SYSTEM, User-Specified maximum_cooling_air_flow_rate [m3/s], 0.00000
! <Environment>,Environment Name,Environment Type, Start Date, End Date, Start DayOfWeek, Duration {#days}, Source:Start DayOfWeek,  Use Daylight Saving, Use Holidays, Apply Weekend Holiday Rule,  Use Rain Values, Use Snow Values, Sky Temperature Model
! <Environment:Special Days>, Special Day Name, Special Day Type, Source, Start Date, Duration {#days}
! <Environment:Daylight Saving>, Daylight Saving Indicator, Source, Start Date, End Date
! <Environment:WarmupDays>, NumberofWarmupDays
Environment,RUN PERIOD 1,WeatherFileRunPeriod,07/01/2006,07/31/2006,Saturday,31,Use RunPeriod Specified Day,No,No,No,Yes,Yes,Clark and Allen
Environment:Daylight Saving,No,RunPeriod Object
Environment:WarmupDays,  6
! <Tabular Report>,Style,Unit Conversion
Tabular Report,HTML,None
! <Warmup Convergence Information>,Zone Name,Environment Type/Name,Average Warmup Temperature Difference {deltaC},Std Dev Warmup Temperature Difference {deltaC},Max Temperature Pass/Fail Convergence,Min Temperature Pass/Fail Convergence,Average Warmup Load Difference {W},Std Dev Warmup Load Difference {W},Heating Load Pass/Fail Convergence,Cooling Load Pass/Fail Convergence
 Warmup Convergence Information,THERMAL ZONE: P1-1-COMMERCE 1,RunPeriod: RUN PERIOD 1,0.5085530492,0.5937091277,Pass,Pass,0.1992566258,0.3798249024,Pass,Pass
 Warmup Convergence Information,THERMAL ZONE: P1-1-DINING 1,RunPeriod: RUN PERIOD 1,0.3247350237,0.3860680467,Pass,Pass,0.1842827094,0.4557722387,Pass,Pass
 Warmup Convergence Information,THERMAL ZONE: P1-1-OFFICE 1,RunPeriod: RUN PERIOD 1,0.5000837308,0.6319909587,Pass,Pass,0.3201018891,0.9174073122,Pass,Pass
 Warmup Convergence Information,THERMAL ZONE: P1-1-OFFICE 2,RunPeriod: RUN PERIOD 1,0.5671194864,0.6672574980,Pass,Pass,0.1971898170,0.4306961054,Pass,Pass
 Warmup Convergence Information,THERMAL ZONE: P1-2-BREAKROOM 1,RunPeriod: RUN PERIOD 1,9.1553975856E-002,0.1247053420,Pass,Pass,4.0488486302E-002,0.3303649347,Pass,Pass
 Warmup Convergence Information,THERMAL ZONE: P1-2-DINING 1,RunPeriod: RUN PERIOD 1,0.7470945710,0.8659978078,Pass,Pass,0.1373597336,0.2624785090,Pass,Pass
 Warmup Convergence Information,THERMAL ZONE: P1-2-RESTROOM 1,RunPeriod: RUN PERIOD 1,0.3848241318,0.4620115741,Pass,Pass,0.2444539287,0.6834092436,Pass,Pass
 Warmup Convergence Information,THERMAL ZONE: P1-3-COMMERCE 1,RunPeriod: RUN PERIOD 1,0.7354934903,0.8201670019,Pass,Pass,0.1916044132,0.3344318505,Pass,Pass
 Warmup Convergence Information,THERMAL ZONE: P1-4-COMMERCE 1,RunPeriod: RUN PERIOD 1,0.7633246003,0.8708183039,Pass,Pass,0.1979780763,0.6433186209,Pass,Pass
 Warmup Convergence Information,THERMAL ZONE: P1-4-DINING 1,RunPeriod: RUN PERIOD 1,0.6163089338,0.7399489099,Pass,Pass,0.1199306500,0.3327221202,Pass,Pass
 Warmup Convergence Information,THERMAL ZONE: P1-5-COMMERCE 1,RunPeriod: RUN PERIOD 1,0.6355122458,0.7219074832,Pass,Pass,0.1872320811,0.3488295715,Pass,Pass
 Warmup Convergence Information,THERMAL ZONE: P1-6-COMMERCE 1,RunPeriod: RUN PERIOD 1,0.5799405448,0.6901107945,Pass,Pass,0.2441288171,0.4619505087,Pass,Pass
